/*---------------------------------------------------------------------------*\
| =========                 |                                                 |
| \\      /  F ield         | OpenFOAM: The Open Source CFD Toolbox           |
|  \\    /   O peration     | Version:  v1906                                 |
|   \\  /    A nd           | Web:      www.OpenFOAM.com                      |
|    \\/     M anipulation  |                                                 |
\*---------------------------------------------------------------------------*/
Build  : 2d4e7adf90-20190710 OPENFOAM=1906 patch=190708
Arch   : "LSB;label=32;scalar=64"
Exec   : icoFoam
Date   : Aug 14 2019
Time   : 15:31:55
Host   : UbuntuDell
PID    : 14375
I/O    : uncollated
Case   : /home/tobias/OpenFOAM/OpenFOAM-plus/src/WENOEXT/tutorials/cavity
nProcs : 1
trapFpe: Floating point exception trapping enabled (FOAM_SIGFPE).
fileModificationChecking : Monitoring run-time modified files using timeStampMaster (fileModificationSkew 10)
allowSystemOperations : Allowing user-supplied system call operations

// * * * * * * * * * * * * * * * * * * * * * * * * * * * * * * * * * * * * * //
Create time

Create mesh for time = 0


PISO: Operating solver in PISO mode

Reading transportProperties

Reading field p

Reading field U

Reading/calculating face flux field phi


Starting time loop

Time = 0.005

Courant Number mean: 0 max: 0
Reconstruction using WENO3 (2D version)

Read existing lists from constant folder 

 cell 0

 stencil 0
size 9
9{(0 0 0)} 

 stencil 1
size 9
9{(0 0 0)} 

 stencil 2
size 9
9{(0 0 0)} 

 cell 1

 stencil 0
size 9
9{(0 0 0)} 

 stencil 1
size 9
9{(0 0 0)} 

 stencil 2
size 9
9{(0 0 0)} 

 cell 2

 stencil 0
size 9
9{(0 0 0)} 

 stencil 1
size 9
9{(0 0 0)} 

 stencil 2
size 9
9{(0 0 0)} 

 cell 3

 stencil 0
size 9
9{(0 0 0)} 

 stencil 1
size 9
9{(0 0 0)} 

 stencil 2
size 9
9{(0 0 0)} 

 cell 4

 stencil 0
size 9
9{(0 0 0)} 

 stencil 1
size 9
9{(0 0 0)} 

 stencil 2
size 9
9{(0 0 0)} 

 cell 5

 stencil 0
size 9
9{(0 0 0)} 

 stencil 1
size 9
9{(0 0 0)} 

 stencil 2
size 9
9{(0 0 0)} 

 stencil 3
size 9
9{(0 0 0)} 

 cell 6

 stencil 0
size 9
9{(0 0 0)} 

 stencil 1
size 9
9{(0 0 0)} 

 stencil 2
size 9
9{(0 0 0)} 

 stencil 3
size 9
9{(0 0 0)} 

 cell 7

 stencil 0
size 9
9{(0 0 0)} 

 stencil 1
size 9
9{(0 0 0)} 

 stencil 2
size 9
9{(0 0 0)} 

 stencil 3
size 9
9{(0 0 0)} 

 cell 8

 stencil 0
size 9
9{(0 0 0)} 

 stencil 1
size 9
9{(0 0 0)} 

 stencil 2
size 9
9{(0 0 0)} 

 stencil 3
size 9
9{(0 0 0)} 

 cell 9

 stencil 0
size 9
9{(0 0 0)} 

 stencil 1
size 9
9{(0 0 0)} 

 stencil 2
size 9
9{(0 0 0)} 

 stencil 3
size 9
9{(0 0 0)} 

 cell 10

 stencil 0
size 9
9{(0 0 0)} 

 stencil 1
size 9
9{(0 0 0)} 

 stencil 2
size 9
9{(0 0 0)} 

 stencil 3
size 9
9{(0 0 0)} 

 cell 11

 stencil 0
size 9
9{(0 0 0)} 

 stencil 1
size 9
9{(0 0 0)} 

 stencil 2
size 9
9{(0 0 0)} 

 stencil 3
size 9
9{(0 0 0)} 

 cell 12

 stencil 0
size 9
9{(0 0 0)} 

 stencil 1
size 9
9{(0 0 0)} 

 stencil 2
size 9
9{(0 0 0)} 

 stencil 3
size 9
9{(0 0 0)} 

 cell 13

 stencil 0
size 9
9{(0 0 0)} 

 stencil 1
size 9
9{(0 0 0)} 

 stencil 2
size 9
9{(0 0 0)} 

 stencil 3
size 9
9{(0 0 0)} 

 cell 14

 stencil 0
size 9
9{(0 0 0)} 

 stencil 1
 stencil 1
size 9
9{(0 0 0)} 

 stencil 2
size 9
9{(0 0 0)} 

 cell 15

 stencil 0
size 9
9{(0 0 0)} 

 stencil 1
 stencil 1
size 9
9{(0 0 0)} 

 stencil 2
size 9
9{(0 0 0)} 

 cell 16

 stencil 0
size 9
9{(0 0 0)} 

 stencil 1
 stencil 1
size 9
9{(0 0 0)} 

 stencil 2
size 9
9{(0 0 0)} 

 cell 17

 stencil 0
size 9
9{(0 0 0)} 

 stencil 1
 stencil 1
size 9
9{(0 0 0)} 

 stencil 2
size 9
9{(0 0 0)} 

 cell 18

 stencil 0
size 9
9{(0 0 0)} 

 stencil 1
 stencil 1
size 9
9{(0 0 0)} 

 stencil 2
size 9
9{(0 0 0)} 

 cell 19

 stencil 0
size 9
9{(0 0 0)} 

 stencil 1
size 9
9{(0 0 0)} 

 stencil 2
size 9
9{(0 0 0)} 

 cell 20

 stencil 0
size 9
9{(0 0 0)} 

 stencil 1
size 9
9{(0 0 0)} 

 stencil 2
size 9
9{(0 0 0)} 

 cell 21

 stencil 0
size 9
9{(0 0 0)} 

 stencil 1
size 9
9{(0 0 0)} 

 stencil 2
size 9
9{(0 0 0)} 

 cell 22

 stencil 0
size 9
9{(0 0 0)} 

 stencil 1
size 9
9{(0 0 0)} 

 stencil 2
size 9
9{(0 0 0)} 

 cell 23

 stencil 0
size 9
9{(0 0 0)} 

 stencil 1
size 9
9{(0 0 0)} 

 stencil 2
size 9
9{(0 0 0)} 

 cell 24

 stencil 0
size 9
9{(0 0 0)} 

 stencil 1
size 9
9{(0 0 0)} 

 stencil 2
size 9
9{(0 0 0)} 

 stencil 3
 stencil 3
size 9
9{(0 0 0)} 

 cell 25

 stencil 0
size 9
9{(0 0 0)} 

 stencil 1
size 9
9{(0 0 0)} 

 stencil 2
size 9
9{(0 0 0)} 

 stencil 3
 stencil 3
size 9
9{(0 0 0)} 

 cell 26

 stencil 0
size 9
9{(0 0 0)} 

 stencil 1
size 9
9{(0 0 0)} 

 stencil 2
size 9
9{(0 0 0)} 

 stencil 3
 stencil 3
size 9
9{(0 0 0)} 

 cell 27

 stencil 0
size 9
9{(0 0 0)} 

 stencil 1
size 9
9{(0 0 0)} 

 stencil 2
size 9
9{(0 0 0)} 

 stencil 3
 stencil 3
size 9
9{(0 0 0)} 

 cell 28

 stencil 0
size 9
9{(0 0 0)} 

 stencil 1
size 9
9{(0 0 0)} 

 stencil 2
size 9
9{(0 0 0)} 

 stencil 3
 stencil 3
size 9
9{(0 0 0)} 

 cell 29

 stencil 0
size 9
9{(0 0 0)} 

 stencil 1
size 9
9{(0 0 0)} 

 stencil 2
size 9
9{(0 0 0)} 

 stencil 3
 stencil 3
size 9
9{(0 0 0)} 

 cell 30

 stencil 0
size 9
9{(0 0 0)} 

 stencil 1
size 9
9{(0 0 0)} 

 stencil 2
size 9
9{(0 0 0)} 

 stencil 3
 stencil 3
size 9
9{(0 0 0)} 

 cell 31

 stencil 0
size 9
9{(0 0 0)} 

 stencil 1
size 9
9{(0 0 0)} 

 stencil 2
size 9
9{(0 0 0)} 

 stencil 3
 stencil 3
size 9
9{(0 0 0)} 

 cell 32

 stencil 0
size 9
9{(0 0 0)} 

 stencil 1
size 9
9{(0 0 0)} 

 stencil 2
size 9
9{(0 0 0)} 

 stencil 3
 stencil 3
size 9
9{(0 0 0)} 

 cell 33

 stencil 0
size 9
9{(0 0 0)} 

 stencil 1
size 9
9{(0 0 0)} 

 stencil 2
size 9
9{(0 0 0)} 

 stencil 3
 stencil 3
size 9
9{(0 0 0)} 

 cell 34

 stencil 0
size 9
9{(0 0 0)} 

 stencil 1
size 9
9{(0 0 0)} 

 stencil 2
size 9
9{(0 0 0)} 

 stencil 3
 stencil 3
size 9
9{(0 0 0)} 

 cell 35

 stencil 0
size 9
9{(0 0 0)} 

 stencil 1
 stencil 1
size 9
9{(0 0 0)} 

 stencil 2
 stencil 2
size 9
9{(0 0 0)} 

 cell 36

 stencil 0
size 9
9{(0 0 0)} 

 stencil 1
 stencil 1
size 9
9{(0 0 0)} 

 stencil 2
 stencil 2
size 9
9{(0 0 0)} 

 cell 37

 stencil 0
size 9
9{(0 0 0)} 

 stencil 1
 stencil 1
size 9
9{(0 0 0)} 

 stencil 2
 stencil 2
size 9
9{(0 0 0)} 

 cell 38

 stencil 0
size 9
9{(0 0 0)} 

 stencil 1
 stencil 1
size 9
9{(0 0 0)} 

 stencil 2
 stencil 2
size 9
9{(0 0 0)} 

 cell 39

 stencil 0
size 9
9{(0 0 0)} 

 stencil 1
size 9
9{(0 0 0)} 

 stencil 2
 stencil 2
size 9
9{(0 0 0)} 

 cell 40

 stencil 0
size 9
9{(0 0 0)} 

 stencil 1
size 9
9{(0 0 0)} 

 stencil 2
size 9
9{(0 0 0)} 

 cell 41

 stencil 0
size 9
9{(0 0 0)} 

 stencil 1
size 9
9{(0 0 0)} 

 stencil 2
size 9
9{(0 0 0)} 

 cell 42

 stencil 0
size 9
9{(0 0 0)} 

 stencil 1
size 9
9{(0 0 0)} 

 stencil 2
size 9
9{(0 0 0)} 

 cell 43

 stencil 0
size 9
9{(0 0 0)} 

 stencil 1
size 9
9{(0 0 0)} 

 stencil 2
size 9
9{(0 0 0)} 

 cell 44

 stencil 0
size 9
9{(0 0 0)} 

 stencil 1
size 9
9{(0 0 0)} 

 stencil 2
size 9
9{(0 0 0)} 

 cell 45

 stencil 0
size 9
9{(0 0 0)} 

 stencil 1
size 9
9{(0 0 0)} 

 stencil 2
size 9
9{(0 0 0)} 

 stencil 3
 stencil 3
size 9
9{(0 0 0)} 

 cell 46

 stencil 0
size 9
9{(0 0 0)} 

 stencil 1
size 9
9{(0 0 0)} 

 stencil 2
size 9
9{(0 0 0)} 

 stencil 3
 stencil 3
size 9
9{(0 0 0)} 

 cell 47

 stencil 0
size 9
9{(0 0 0)} 

 stencil 1
size 9
9{(0 0 0)} 

 stencil 2
size 9
9{(0 0 0)} 

 stencil 3
 stencil 3
size 9
9{(0 0 0)} 

 cell 48

 stencil 0
size 9
9{(0 0 0)} 

 stencil 1
size 9
9{(0 0 0)} 

 stencil 2
size 9
9{(0 0 0)} 

 stencil 3
 stencil 3
size 9
9{(0 0 0)} 

 cell 49

 stencil 0
size 9
9{(0 0 0)} 

 stencil 1
size 9
9{(0 0 0)} 

 stencil 2
size 9
9{(0 0 0)} 

 stencil 3
 stencil 3
size 9
9{(0 0 0)} 

 cell 50

 stencil 0
size 9
9{(0 0 0)} 

 stencil 1
size 9
9{(0 0 0)} 

 stencil 2
size 9
9{(0 0 0)} 

 stencil 3
 stencil 3
size 9
9{(0 0 0)} 

 cell 51

 stencil 0
size 9
9{(0 0 0)} 

 stencil 1
size 9
9{(0 0 0)} 

 stencil 2
size 9
9{(0 0 0)} 

 stencil 3
 stencil 3
size 9
9{(0 0 0)} 

 cell 52

 stencil 0
size 9
9{(0 0 0)} 

 stencil 1
size 9
9{(0 0 0)} 

 stencil 2
size 9
9{(0 0 0)} 

 stencil 3
 stencil 3
size 9
9{(0 0 0)} 

 cell 53

 stencil 0
size 9
9{(0 0 0)} 

 stencil 1
size 9
9{(0 0 0)} 

 stencil 2
size 9
9{(0 0 0)} 

 stencil 3
 stencil 3
size 9
9{(0 0 0)} 

 cell 54

 stencil 0
size 9
9{(0 0 0)} 

 stencil 1
size 9
9{(0 0 0)} 

 stencil 2
size 9
9{(0 0 0)} 

 stencil 3
 stencil 3
size 9
9{(0 0 0)} 

 cell 55

 stencil 0
size 9
9{(0 0 0)} 

 stencil 1
 stencil 1
size 9
9{(0 0 0)} 

 stencil 2
 stencil 2
size 9
9{(0 0 0)} 

 cell 56

 stencil 0
size 9
9{(0 0 0)} 

 stencil 1
 stencil 1
size 9
9{(0 0 0)} 

 stencil 2
 stencil 2
size 9
9{(0 0 0)} 

 cell 57

 stencil 0
size 9
9{(0 0 0)} 

 stencil 1
 stencil 1
size 9
9{(0 0 0)} 

 stencil 2
 stencil 2
size 9
9{(0 0 0)} 

 cell 58

 stencil 0
size 9
9{(0 0 0)} 

 stencil 1
 stencil 1
size 9
9{(0 0 0)} 

 stencil 2
 stencil 2
size 9
9{(0 0 0)} 

 cell 59

 stencil 0
size 9
9{(0 0 0)} 

 stencil 1
size 9
9{(0 0 0)} 

 stencil 2
 stencil 2
size 9
9{(0 0 0)} 

 cell 60

 stencil 0
size 9
9{(0 0 0)} 

 stencil 1
size 9
9{(0 0 0)} 

 stencil 2
size 9
9{(0 0 0)} 

 cell 61

 stencil 0
size 9
9{(0 0 0)} 

 stencil 1
size 9
9{(0 0 0)} 

 stencil 2
size 9
9{(0 0 0)} 

 cell 62

 stencil 0
size 9
9{(0 0 0)} 

 stencil 1
size 9
9{(0 0 0)} 

 stencil 2
size 9
9{(0 0 0)} 

 cell 63

 stencil 0
size 9
9{(0 0 0)} 

 stencil 1
size 9
9{(0 0 0)} 

 stencil 2
size 9
9{(0 0 0)} 

 cell 64

 stencil 0
size 9
9{(0 0 0)} 

 stencil 1
size 9
9{(0 0 0)} 

 stencil 2
size 9
9{(0 0 0)} 

 stencil 3
 stencil 3
size 9
9{(0 0 0)} 

 cell 65

 stencil 0
size 9
9{(0 0 0)} 

 stencil 1
size 9
9{(0 0 0)} 

 stencil 2
size 9
9{(0 0 0)} 

 stencil 3
 stencil 3
size 9
9{(0 0 0)} 

 cell 66

 stencil 0
size 9
9{(0 0 0)} 

 stencil 1
size 9
9{(0 0 0)} 

 stencil 2
size 9
9{(0 0 0)} 

 stencil 3
 stencil 3
size 9
9{(0 0 0)} 

 cell 67

 stencil 0
size 9
9{(0 0 0)} 

 stencil 1
size 9
9{(0 0 0)} 

 stencil 2
size 9
9{(0 0 0)} 

 stencil 3
 stencil 3
size 9
9{(0 0 0)} 

 cell 68

 stencil 0
size 9
9{(0 0 0)} 

 stencil 1
size 9
9{(0 0 0)} 

 stencil 2
size 9
9{(0 0 0)} 

 stencil 3
 stencil 3
size 9
9{(0 0 0)} 

 cell 69

 stencil 0
size 9
9{(0 0 0)} 

 stencil 1
size 9
9{(0 0 0)} 

 stencil 2
size 9
9{(0 0 0)} 

 stencil 3
 stencil 3
size 9
9{(0 0 0)} 

 cell 70

 stencil 0
size 9
9{(0 0 0)} 

 stencil 1
size 9
9{(0 0 0)} 

 stencil 2
size 9
9{(0 0 0)} 

 stencil 3
 stencil 3
size 9
9{(0 0 0)} 

 cell 71

 stencil 0
size 9
9{(0 0 0)} 

 stencil 1
size 9
9{(0 0 0)} 

 stencil 2
size 9
9{(0 0 0)} 

 stencil 3
 stencil 3
size 9
9{(0 0 0)} 

 cell 72

 stencil 0
size 9
9{(0 0 0)} 

 stencil 1
size 9
9{(0 0 0)} 

 stencil 2
size 9
9{(0 0 0)} 

 stencil 3
 stencil 3
size 9
9{(0 0 0)} 

 cell 73

 stencil 0
size 9
9{(0 0 0)} 

 stencil 1
size 9
9{(0 0 0)} 

 stencil 2
size 9
9{(0 0 0)} 

 stencil 3
 stencil 3
size 9
9{(0 0 0)} 

 cell 74

 stencil 0
size 9
9{(0 0 0)} 

 stencil 1
size 9
9{(0 0 0)} 

 stencil 2
size 9
9{(0 0 0)} 

 stencil 3
 stencil 3
size 9
9{(0 0 0)} 

 cell 75

 stencil 0
size 9
9{(0 0 0)} 

 stencil 1
 stencil 1
size 9
9{(0 0 0)} 

 stencil 2
 stencil 2
size 9
9{(0 0 0)} 

 cell 76

 stencil 0
size 9
9{(0 0 0)} 

 stencil 1
 stencil 1
size 9
9{(0 0 0)} 

 stencil 2
 stencil 2
size 9
9{(0 0 0)} 

 cell 77

 stencil 0
size 9
9{(0 0 0)} 

 stencil 1
 stencil 1
size 9
9{(0 0 0)} 

 stencil 2
 stencil 2
size 9
9{(0 0 0)} 

 cell 78

 stencil 0
size 9
9{(0 0 0)} 

 stencil 1
 stencil 1
size 9
9{(0 0 0)} 

 stencil 2
 stencil 2
size 9
9{(0 0 0)} 

 cell 79

 stencil 0
size 9
9{(0 0 0)} 

 stencil 1
size 9
9{(0 0 0)} 

 stencil 2
 stencil 2
size 9
9{(0 0 0)} 

 cell 80

 stencil 0
size 9
9{(0 0 0)} 

 stencil 1
size 9
9{(0 0 0)} 

 stencil 2
size 9
9{(0 0 0)} 

 cell 81

 stencil 0
size 9
9{(0 0 0)} 

 stencil 1
size 9
9{(0 0 0)} 

 stencil 2
size 9
9{(0 0 0)} 

 stencil 3
size 9
9{(0 0 0)} 

 cell 82

 stencil 0
size 9
9{(0 0 0)} 

 stencil 1
size 9
9{(0 0 0)} 

 stencil 2
size 9
9{(0 0 0)} 

 stencil 3
size 9
9{(0 0 0)} 

 cell 83

 stencil 0
size 9
9{(0 0 0)} 

 stencil 1
size 9
9{(0 0 0)} 

 stencil 2
size 9
9{(0 0 0)} 

 stencil 3
size 9
9{(0 0 0)} 

 cell 84

 stencil 0
size 9
9{(0 0 0)} 

 stencil 1
size 9
9{(0 0 0)} 

 stencil 2
size 9
9{(0 0 0)} 

 stencil 3
size 9
9{(0 0 0)} 

 stencil 4
size 9
9{(0 0 0)} 

 cell 85

 stencil 0
size 9
9{(0 0 0)} 

 stencil 1
size 9
9{(0 0 0)} 

 stencil 2
size 9
9{(0 0 0)} 

 stencil 3
size 9
9{(0 0 0)} 

 stencil 4
size 9
9{(0 0 0)} 

 cell 86

 stencil 0
size 9
9{(0 0 0)} 

 stencil 1
size 9
9{(0 0 0)} 

 stencil 2
size 9
9{(0 0 0)} 

 stencil 3
size 9
9{(0 0 0)} 

 stencil 4
size 9
9{(0 0 0)} 

 cell 87

 stencil 0
size 9
9{(0 0 0)} 

 stencil 1
size 9
9{(0 0 0)} 

 stencil 2
size 9
9{(0 0 0)} 

 stencil 3
size 9
9{(0 0 0)} 

 stencil 4
size 9
9{(0 0 0)} 

 cell 88

 stencil 0
size 9
9{(0 0 0)} 

 stencil 1
size 9
9{(0 0 0)} 

 stencil 2
size 9
9{(0 0 0)} 

 stencil 3
size 9
9{(0 0 0)} 

 stencil 4
size 9
9{(0 0 0)} 

 cell 89

 stencil 0
size 9
9{(0 0 0)} 

 stencil 1
size 9
9{(0 0 0)} 

 stencil 2
size 9
9{(0 0 0)} 

 stencil 3
 stencil 3
size 9
9{(0 0 0)} 

 cell 90

 stencil 0
size 9
9{(0 0 0)} 

 stencil 1
size 9
9{(0 0 0)} 

 stencil 2
size 9
9{(0 0 0)} 

 stencil 3
size 9
9{(0 0 0)} 

 stencil 4
size 9
9{(0 0 0)} 

 cell 91

 stencil 0
size 9
9{(0 0 0)} 

 stencil 1
size 9
9{(0 0 0)} 

 stencil 2
size 9
9{(0 0 0)} 

 stencil 3
size 9
9{(0 0 0)} 

 stencil 4
size 9
9{(0 0 0)} 

 cell 92

 stencil 0
size 9
9{(0 0 0)} 

 stencil 1
size 9
9{(0 0 0)} 

 stencil 2
size 9
9{(0 0 0)} 

 stencil 3
size 9
9{(0 0 0)} 

 stencil 4
size 9
9{(0 0 0)} 

 cell 93

 stencil 0
size 9
9{(0 0 0)} 

 stencil 1
size 9
9{(0 0 0)} 

 stencil 2
size 9
9{(0 0 0)} 

 stencil 3
size 9
9{(0 0 0)} 

 stencil 4
size 9
9{(0 0 0)} 

 cell 94

 stencil 0
size 9
9{(0 0 0)} 

 stencil 1
size 9
9{(0 0 0)} 

 stencil 2
size 9
9{(0 0 0)} 

 stencil 3
size 9
9{(0 0 0)} 

 stencil 4
size 9
9{(0 0 0)} 

 cell 95

 stencil 0
size 9
9{(0 0 0)} 

 stencil 1
 stencil 1
size 9
9{(0 0 0)} 

 stencil 2
size 9
9{(0 0 0)} 

 stencil 3
size 9
9{(0 0 0)} 

 cell 96

 stencil 0
size 9
9{(0 0 0)} 

 stencil 1
 stencil 1
size 9
9{(0 0 0)} 

 stencil 2
size 9
9{(0 0 0)} 

 stencil 3
size 9
9{(0 0 0)} 

 cell 97

 stencil 0
size 9
9{(0 0 0)} 

 stencil 1
 stencil 1
size 9
9{(0 0 0)} 

 stencil 2
 stencil 2
size 9
9{(0 0 0)} 

 cell 98

 stencil 0
size 9
9{(0 0 0)} 

 stencil 1
 stencil 1
size 9
9{(0 0 0)} 

 stencil 2
 stencil 2
size 9
9{(0 0 0)} 

 cell 99

 stencil 0
size 9
9{(0 0 0)} 

 stencil 1
size 9
9{(0 0 0)} 

 stencil 2
 stencil 2
size 9
9{(0 0 0)} 

 cell 100

 stencil 0
size 9
9{(0 0 0)} 

 stencil 1
size 9
9{(0 0 0)} 

 stencil 2
size 9
9{(0 0 0)} 

 stencil 3
size 9
9{(0 0 0)} 

 cell 101

 stencil 0
size 9
9{(0 0 0)} 

 stencil 1
size 9
9{(0 0 0)} 

 stencil 2
size 9
9{(0 0 0)} 

 stencil 3
size 9
9{(0 0 0)} 

 cell 102

 stencil 0
size 9
9{(0 0 0)} 

 stencil 1
size 9
9{(0 0 0)} 

 stencil 2
size 9
9{(0 0 0)} 

 stencil 3
size 9
9{(0 0 0)} 

 cell 103

 stencil 0
size 9
9{(0 0 0)} 

 stencil 1
size 9
9{(0 0 0)} 

 stencil 2
size 9
9{(0 0 0)} 

 stencil 3
size 9
9{(0 0 0)} 

 cell 104

 stencil 0
size 9
9{(0 0 0)} 

 stencil 1
size 9
9{(0 0 0)} 

 stencil 2
size 9
9{(0 0 0)} 

 stencil 3
size 9
9{(0 0 0)} 

 stencil 4
size 9
9{(0 0 0)} 

 cell 105

 stencil 0
size 9
9{(0 0 0)} 

 stencil 1
size 9
9{(0 0 0)} 

 stencil 2
size 9
9{(0 0 0)} 

 stencil 3
size 9
9{(0 0 0)} 

 stencil 4
size 9
9{(0 0 0)} 

 cell 106

 stencil 0
size 9
9{(0 0 0)} 

 stencil 1
size 9
9{(0 0 0)} 

 stencil 2
size 9
9{(0 0 0)} 

 stencil 3
size 9
9{(0 0 0)} 

 stencil 4
size 9
9{(0 0 0)} 

 cell 107

 stencil 0
size 9
9{(0 0 0)} 

 stencil 1
size 9
9{(0 0 0)} 

 stencil 2
size 9
9{(0 0 0)} 

 stencil 3
size 9
9{(0 0 0)} 

 stencil 4
size 9
9{(0 0 0)} 

 cell 108

 stencil 0
size 9
9{(0 0 0)} 

 stencil 1
size 9
9{(0 0 0)} 

 stencil 2
size 9
9{(0 0 0)} 

 stencil 3
size 9
9{(0 0 0)} 

 stencil 4
size 9
9{(0 0 0)} 

 cell 109

 stencil 0
size 9
9{(0 0 0)} 

 stencil 1
size 9
9{(0 0 0)} 

 stencil 2
size 9
9{(0 0 0)} 

 stencil 3
size 9
9{(0 0 0)} 

 stencil 4
size 9
9{(0 0 0)} 

 cell 110

 stencil 0
size 9
9{(0 0 0)} 

 stencil 1
size 9
9{(0 0 0)} 

 stencil 2
size 9
9{(0 0 0)} 

 stencil 3
size 9
9{(0 0 0)} 

 stencil 4
size 9
9{(0 0 0)} 

 cell 111

 stencil 0
size 9
9{(0 0 0)} 

 stencil 1
size 9
9{(0 0 0)} 

 stencil 2
size 9
9{(0 0 0)} 

 stencil 3
size 9
9{(0 0 0)} 

 stencil 4
size 9
9{(0 0 0)} 

 cell 112

 stencil 0
size 9
9{(0 0 0)} 

 stencil 1
size 9
9{(0 0 0)} 

 stencil 2
size 9
9{(0 0 0)} 

 stencil 3
size 9
9{(0 0 0)} 

 stencil 4
size 9
9{(0 0 0)} 

 cell 113

 stencil 0
size 9
9{(0 0 0)} 

 stencil 1
size 9
9{(0 0 0)} 

 stencil 2
size 9
9{(0 0 0)} 

 stencil 3
size 9
9{(0 0 0)} 

 stencil 4
size 9
9{(0 0 0)} 

 cell 114

 stencil 0
size 9
9{(0 0 0)} 

 stencil 1
size 9
9{(0 0 0)} 

 stencil 2
size 9
9{(0 0 0)} 

 stencil 3
size 9
9{(0 0 0)} 

 stencil 4
size 9
9{(0 0 0)} 

 cell 115

 stencil 0
size 9
9{(0 0 0)} 

 stencil 1
 stencil 1
size 9
9{(0 0 0)} 

 stencil 2
size 9
9{(0 0 0)} 

 stencil 3
size 9
9{(0 0 0)} 

 cell 116

 stencil 0
size 9
9{(0 0 0)} 

 stencil 1
 stencil 1
size 9
9{(0 0 0)} 

 stencil 2
size 9
9{(0 0 0)} 

 stencil 3
size 9
9{(0 0 0)} 

 cell 117

 stencil 0
size 9
9{(0 0 0)} 

 stencil 1
 stencil 1
size 9
9{(0 0 0)} 

 stencil 2
size 9
9{(0 0 0)} 

 stencil 3
size 9
9{(0 0 0)} 

 cell 118

 stencil 0
size 9
9{(0 0 0)} 

 stencil 1
 stencil 1
size 9
9{(0 0 0)} 

 stencil 2
size 9
9{(0 0 0)} 

 stencil 3
size 9
9{(0 0 0)} 

 cell 119

 stencil 0
size 9
9{(0 0 0)} 

 stencil 1
size 9
9{(0 0 0)} 

 stencil 2
size 9
9{(0 0 0)} 

 stencil 3
size 9
9{(0 0 0)} 

 cell 120

 stencil 0
size 9
9{(0 0 0)} 

 stencil 1
size 9
9{(0 0 0)} 

 stencil 2
size 9
9{(0 0 0)} 

 stencil 3
size 9
9{(0 0 0)} 

 cell 121

 stencil 0
size 9
9{(0 0 0)} 

 stencil 1
size 9
9{(0 0 0)} 

 stencil 2
size 9
9{(0 0 0)} 

 stencil 3
size 9
9{(0 0 0)} 

 cell 122

 stencil 0
size 9
9{(0 0 0)} 

 stencil 1
size 9
9{(0 0 0)} 

 stencil 2
size 9
9{(0 0 0)} 

 stencil 3
size 9
9{(0 0 0)} 

 cell 123

 stencil 0
size 9
9{(0 0 0)} 

 stencil 1
size 9
9{(0 0 0)} 

 stencil 2
size 9
9{(0 0 0)} 

 stencil 3
size 9
9{(0 0 0)} 

 cell 124

 stencil 0
size 9
9{(0 0 0)} 

 stencil 1
size 9
9{(0 0 0)} 

 stencil 2
size 9
9{(0 0 0)} 

 stencil 3
size 9
9{(0 0 0)} 

 stencil 4
size 9
9{(0 0 0)} 

 cell 125

 stencil 0
size 9
9{(0 0 0)} 

 stencil 1
size 9
9{(0 0 0)} 

 stencil 2
size 9
9{(0 0 0)} 

 stencil 3
size 9
9{(0 0 0)} 

 stencil 4
size 9
9{(0 0 0)} 

 cell 126

 stencil 0
size 9
9{(0 0 0)} 

 stencil 1
size 9
9{(0 0 0)} 

 stencil 2
size 9
9{(0 0 0)} 

 stencil 3
size 9
9{(0 0 0)} 

 stencil 4
size 9
9{(0 0 0)} 

 cell 127

 stencil 0
size 9
9{(0 0 0)} 

 stencil 1
size 9
9{(0 0 0)} 

 stencil 2
size 9
9{(0 0 0)} 

 stencil 3
size 9
9{(0 0 0)} 

 stencil 4
size 9
9{(0 0 0)} 

 cell 128

 stencil 0
size 9
9{(0 0 0)} 

 stencil 1
size 9
9{(0 0 0)} 

 stencil 2
size 9
9{(0 0 0)} 

 stencil 3
size 9
9{(0 0 0)} 

 stencil 4
size 9
9{(0 0 0)} 

 cell 129

 stencil 0
size 9
9{(0 0 0)} 

 stencil 1
size 9
9{(0 0 0)} 

 stencil 2
size 9
9{(0 0 0)} 

 stencil 3
size 9
9{(0 0 0)} 

 stencil 4
size 9
9{(0 0 0)} 

 cell 130

 stencil 0
size 9
9{(0 0 0)} 

 stencil 1
size 9
9{(0 0 0)} 

 stencil 2
size 9
9{(0 0 0)} 

 stencil 3
size 9
9{(0 0 0)} 

 stencil 4
size 9
9{(0 0 0)} 

 cell 131

 stencil 0
size 9
9{(0 0 0)} 

 stencil 1
size 9
9{(0 0 0)} 

 stencil 2
size 9
9{(0 0 0)} 

 stencil 3
size 9
9{(0 0 0)} 

 stencil 4
size 9
9{(0 0 0)} 

 cell 132

 stencil 0
size 9
9{(0 0 0)} 

 stencil 1
size 9
9{(0 0 0)} 

 stencil 2
size 9
9{(0 0 0)} 

 stencil 3
size 9
9{(0 0 0)} 

 stencil 4
size 9
9{(0 0 0)} 

 cell 133

 stencil 0
size 9
9{(0 0 0)} 

 stencil 1
size 9
9{(0 0 0)} 

 stencil 2
size 9
9{(0 0 0)} 

 stencil 3
size 9
9{(0 0 0)} 

 stencil 4
size 9
9{(0 0 0)} 

 cell 134

 stencil 0
size 9
9{(0 0 0)} 

 stencil 1
size 9
9{(0 0 0)} 

 stencil 2
size 9
9{(0 0 0)} 

 stencil 3
size 9
9{(0 0 0)} 

 stencil 4
size 9
9{(0 0 0)} 

 cell 135

 stencil 0
size 9
9{(0 0 0)} 

 stencil 1
 stencil 1
size 9
9{(0 0 0)} 

 stencil 2
size 9
9{(0 0 0)} 

 stencil 3
size 9
9{(0 0 0)} 

 cell 136

 stencil 0
size 9
9{(0 0 0)} 

 stencil 1
 stencil 1
size 9
9{(0 0 0)} 

 stencil 2
size 9
9{(0 0 0)} 

 stencil 3
size 9
9{(0 0 0)} 

 cell 137

 stencil 0
size 9
9{(0 0 0)} 

 stencil 1
 stencil 1
size 9
9{(0 0 0)} 

 stencil 2
size 9
9{(0 0 0)} 

 stencil 3
size 9
9{(0 0 0)} 

 cell 138

 stencil 0
size 9
9{(0 0 0)} 

 stencil 1
 stencil 1
size 9
9{(0 0 0)} 

 stencil 2
size 9
9{(0 0 0)} 

 stencil 3
size 9
9{(0 0 0)} 

 cell 139

 stencil 0
size 9
9{(0 0 0)} 

 stencil 1
size 9
9{(0 0 0)} 

 stencil 2
size 9
9{(0 0 0)} 

 stencil 3
size 9
9{(0 0 0)} 

 cell 140

 stencil 0
size 9
9{(0 0 0)} 

 stencil 1
size 9
9{(0 0 0)} 

 stencil 2
size 9
9{(0 0 0)} 

 stencil 3
size 9
9{(0 0 0)} 

 cell 141

 stencil 0
size 9
9{(0 0 0)} 

 stencil 1
size 9
9{(0 0 0)} 

 stencil 2
size 9
9{(0 0 0)} 

 stencil 3
size 9
9{(0 0 0)} 

 cell 142

 stencil 0
size 9
9{(0 0 0)} 

 stencil 1
size 9
9{(0 0 0)} 

 stencil 2
size 9
9{(0 0 0)} 

 stencil 3
size 9
9{(0 0 0)} 

 cell 143

 stencil 0
size 9
9{(0 0 0)} 

 stencil 1
size 9
9{(0 0 0)} 

 stencil 2
size 9
9{(0 0 0)} 

 stencil 3
size 9
9{(0 0 0)} 

 cell 144

 stencil 0
size 9
9{(0 0 0)} 

 stencil 1
size 9
9{(0 0 0)} 

 stencil 2
size 9
9{(0 0 0)} 

 stencil 3
size 9
9{(0 0 0)} 

 stencil 4
size 9
9{(0 0 0)} 

 cell 145

 stencil 0
size 9
9{(0 0 0)} 

 stencil 1
size 9
9{(0 0 0)} 

 stencil 2
size 9
9{(0 0 0)} 

 stencil 3
size 9
9{(0 0 0)} 

 stencil 4
size 9
9{(0 0 0)} 

 cell 146

 stencil 0
size 9
9{(0 0 0)} 

 stencil 1
size 9
9{(0 0 0)} 

 stencil 2
size 9
9{(0 0 0)} 

 stencil 3
size 9
9{(0 0 0)} 

 stencil 4
size 9
9{(0 0 0)} 

 cell 147

 stencil 0
size 9
9{(0 0 0)} 

 stencil 1
size 9
9{(0 0 0)} 

 stencil 2
size 9
9{(0 0 0)} 

 stencil 3
size 9
9{(0 0 0)} 

 stencil 4
size 9
9{(0 0 0)} 

 cell 148

 stencil 0
size 9
9{(0 0 0)} 

 stencil 1
size 9
9{(0 0 0)} 

 stencil 2
size 9
9{(0 0 0)} 

 stencil 3
size 9
9{(0 0 0)} 

 stencil 4
size 9
9{(0 0 0)} 

 cell 149

 stencil 0
size 9
9{(0 0 0)} 

 stencil 1
size 9
9{(0 0 0)} 

 stencil 2
size 9
9{(0 0 0)} 

 stencil 3
size 9
9{(0 0 0)} 

 stencil 4
size 9
9{(0 0 0)} 

 cell 150

 stencil 0
size 9
9{(0 0 0)} 

 stencil 1
size 9
9{(0 0 0)} 

 stencil 2
size 9
9{(0 0 0)} 

 stencil 3
size 9
9{(0 0 0)} 

 stencil 4
size 9
9{(0 0 0)} 

 cell 151

 stencil 0
size 9
9{(0 0 0)} 

 stencil 1
size 9
9{(0 0 0)} 

 stencil 2
size 9
9{(0 0 0)} 

 stencil 3
size 9
9{(0 0 0)} 

 stencil 4
size 9
9{(0 0 0)} 

 cell 152

 stencil 0
size 9
9{(0 0 0)} 

 stencil 1
size 9
9{(0 0 0)} 

 stencil 2
size 9
9{(0 0 0)} 

 stencil 3
size 9
9{(0 0 0)} 

 stencil 4
size 9
9{(0 0 0)} 

 cell 153

 stencil 0
size 9
9{(0 0 0)} 

 stencil 1
size 9
9{(0 0 0)} 

 stencil 2
size 9
9{(0 0 0)} 

 stencil 3
size 9
9{(0 0 0)} 

 stencil 4
size 9
9{(0 0 0)} 

 cell 154

 stencil 0
size 9
9{(0 0 0)} 

 stencil 1
size 9
9{(0 0 0)} 

 stencil 2
size 9
9{(0 0 0)} 

 stencil 3
size 9
9{(0 0 0)} 

 stencil 4
size 9
9{(0 0 0)} 

 cell 155

 stencil 0
size 9
9{(0 0 0)} 

 stencil 1
 stencil 1
size 9
9{(0 0 0)} 

 stencil 2
size 9
9{(0 0 0)} 

 stencil 3
size 9
9{(0 0 0)} 

 cell 156

 stencil 0
size 9
9{(0 0 0)} 

 stencil 1
 stencil 1
size 9
9{(0 0 0)} 

 stencil 2
size 9
9{(0 0 0)} 

 stencil 3
size 9
9{(0 0 0)} 

 cell 157

 stencil 0
size 9
9{(0 0 0)} 

 stencil 1
 stencil 1
size 9
9{(0 0 0)} 

 stencil 2
size 9
9{(0 0 0)} 

 stencil 3
size 9
9{(0 0 0)} 

 cell 158

 stencil 0
size 9
9{(0 0 0)} 

 stencil 1
 stencil 1
size 9
9{(0 0 0)} 

 stencil 2
size 9
9{(0 0 0)} 

 stencil 3
size 9
9{(0 0 0)} 

 cell 159

 stencil 0
size 9
9{(0 0 0)} 

 stencil 1
size 9
9{(0 0 0)} 

 stencil 2
size 9
9{(0 0 0)} 

 stencil 3
size 9
9{(0 0 0)} 

 cell 160

 stencil 0
size 9
9{(0 0 0)} 

 stencil 1
size 9
9{(0 0 0)} 

 stencil 2
size 9
9{(0 0 0)} 

 stencil 3
size 9
9{(0 0 0)} 

 cell 161

 stencil 0
size 9
9{(0 0 0)} 

 stencil 1
size 9
9{(0 0 0)} 

 stencil 2
size 9
9{(0 0 0)} 

 stencil 3
size 9
9{(0 0 0)} 

 cell 162

 stencil 0
size 9
9{(0 0 0)} 

 stencil 1
size 9
9{(0 0 0)} 

 stencil 2
size 9
9{(0 0 0)} 

 stencil 3
size 9
9{(0 0 0)} 

 cell 163

 stencil 0
size 9
9{(0 0 0)} 

 stencil 1
size 9
9{(0 0 0)} 

 stencil 2
size 9
9{(0 0 0)} 

 stencil 3
size 9
9{(0 0 0)} 

 cell 164

 stencil 0
size 9
9{(0 0 0)} 

 stencil 1
size 9
9{(0 0 0)} 

 stencil 2
size 9
9{(0 0 0)} 

 stencil 3
size 9
9{(0 0 0)} 

 stencil 4
size 9
9{(0 0 0)} 

 cell 165

 stencil 0
size 9
9{(0 0 0)} 

 stencil 1
size 9
9{(0 0 0)} 

 stencil 2
size 9
9{(0 0 0)} 

 stencil 3
size 9
9{(0 0 0)} 

 stencil 4
size 9
9{(0 0 0)} 

 cell 166

 stencil 0
size 9
9{(0 0 0)} 

 stencil 1
size 9
9{(0 0 0)} 

 stencil 2
size 9
9{(0 0 0)} 

 stencil 3
size 9
9{(0 0 0)} 

 stencil 4
size 9
9{(0 0 0)} 

 cell 167

 stencil 0
size 9
9{(0 0 0)} 

 stencil 1
size 9
9{(0 0 0)} 

 stencil 2
size 9
9{(0 0 0)} 

 stencil 3
size 9
9{(0 0 0)} 

 stencil 4
size 9
9{(0 0 0)} 

 cell 168

 stencil 0
size 9
9{(0 0 0)} 

 stencil 1
size 9
9{(0 0 0)} 

 stencil 2
size 9
9{(0 0 0)} 

 stencil 3
size 9
9{(0 0 0)} 

 stencil 4
size 9
9{(0 0 0)} 

 cell 169

 stencil 0
size 9
9{(0 0 0)} 

 stencil 1
size 9
9{(0 0 0)} 

 stencil 2
size 9
9{(0 0 0)} 

 stencil 3
size 9
9{(0 0 0)} 

 stencil 4
size 9
9{(0 0 0)} 

 cell 170

 stencil 0
size 9
9{(0 0 0)} 

 stencil 1
size 9
9{(0 0 0)} 

 stencil 2
size 9
9{(0 0 0)} 

 stencil 3
size 9
9{(0 0 0)} 

 stencil 4
size 9
9{(0 0 0)} 

 cell 171

 stencil 0
size 9
9{(0 0 0)} 

 stencil 1
size 9
9{(0 0 0)} 

 stencil 2
size 9
9{(0 0 0)} 

 stencil 3
size 9
9{(0 0 0)} 

 stencil 4
size 9
9{(0 0 0)} 

 cell 172

 stencil 0
size 9
9{(0 0 0)} 

 stencil 1
size 9
9{(0 0 0)} 

 stencil 2
size 9
9{(0 0 0)} 

 stencil 3
size 9
9{(0 0 0)} 

 stencil 4
size 9
9{(0 0 0)} 

 cell 173

 stencil 0
size 9
9{(0 0 0)} 

 stencil 1
size 9
9{(0 0 0)} 

 stencil 2
size 9
9{(0 0 0)} 

 stencil 3
size 9
9{(0 0 0)} 

 stencil 4
size 9
9{(0 0 0)} 

 cell 174

 stencil 0
size 9
9{(0 0 0)} 

 stencil 1
size 9
9{(0 0 0)} 

 stencil 2
size 9
9{(0 0 0)} 

 stencil 3
size 9
9{(0 0 0)} 

 stencil 4
size 9
9{(0 0 0)} 

 cell 175

 stencil 0
size 9
9{(0 0 0)} 

 stencil 1
 stencil 1
size 9
9{(0 0 0)} 

 stencil 2
size 9
9{(0 0 0)} 

 stencil 3
size 9
9{(0 0 0)} 

 cell 176

 stencil 0
size 9
9{(0 0 0)} 

 stencil 1
 stencil 1
size 9
9{(0 0 0)} 

 stencil 2
size 9
9{(0 0 0)} 

 stencil 3
size 9
9{(0 0 0)} 

 cell 177

 stencil 0
size 9
9{(0 0 0)} 

 stencil 1
 stencil 1
size 9
9{(0 0 0)} 

 stencil 2
size 9
9{(0 0 0)} 

 stencil 3
size 9
9{(0 0 0)} 

 cell 178

 stencil 0
size 9
9{(0 0 0)} 

 stencil 1
 stencil 1
size 9
9{(0 0 0)} 

 stencil 2
size 9
9{(0 0 0)} 

 stencil 3
size 9
9{(0 0 0)} 

 cell 179

 stencil 0
size 9
9{(0 0 0)} 

 stencil 1
size 9
9{(0 0 0)} 

 stencil 2
size 9
9{(0 0 0)} 

 stencil 3
size 9
9{(0 0 0)} 

 cell 180

 stencil 0
size 9
9{(0 0 0)} 

 stencil 1
size 9
9{(0 0 0)} 

 stencil 2
size 9
9{(0 0 0)} 

 stencil 3
size 9
9{(0 0 0)} 

 cell 181

 stencil 0
size 9
9{(0 0 0)} 

 stencil 1
size 9
9{(0 0 0)} 

 stencil 2
size 9
9{(0 0 0)} 

 stencil 3
size 9
9{(0 0 0)} 

 cell 182

 stencil 0
size 9
9{(0 0 0)} 

 stencil 1
size 9
9{(0 0 0)} 

 stencil 2
size 9
9{(0 0 0)} 

 stencil 3
size 9
9{(0 0 0)} 

 cell 183

 stencil 0
size 9
9{(0 0 0)} 

 stencil 1
size 9
9{(0 0 0)} 

 stencil 2
size 9
9{(0 0 0)} 

 stencil 3
size 9
9{(0 0 0)} 

 cell 184

 stencil 0
size 9
9{(0 0 0)} 

 stencil 1
size 9
9{(0 0 0)} 

 stencil 2
size 9
9{(0 0 0)} 

 stencil 3
size 9
9{(0 0 0)} 

 stencil 4
size 9
9{(0 0 0)} 

 cell 185

 stencil 0
size 9
9{(0 0 0)} 

 stencil 1
size 9
9{(0 0 0)} 

 stencil 2
size 9
9{(0 0 0)} 

 stencil 3
size 9
9{(0 0 0)} 

 stencil 4
size 9
9{(0 0 0)} 

 cell 186

 stencil 0
size 9
9{(0 0 0)} 

 stencil 1
size 9
9{(0 0 0)} 

 stencil 2
size 9
9{(0 0 0)} 

 stencil 3
size 9
9{(0 0 0)} 

 stencil 4
size 9
9{(0 0 0)} 

 cell 187

 stencil 0
size 9
9{(0 0 0)} 

 stencil 1
size 9
9{(0 0 0)} 

 stencil 2
size 9
9{(0 0 0)} 

 stencil 3
size 9
9{(0 0 0)} 

 stencil 4
size 9
9{(0 0 0)} 

 cell 188

 stencil 0
size 9
9{(0 0 0)} 

 stencil 1
size 9
9{(0 0 0)} 

 stencil 2
size 9
9{(0 0 0)} 

 stencil 3
size 9
9{(0 0 0)} 

 stencil 4
size 9
9{(0 0 0)} 

 cell 189

 stencil 0
size 9
9{(0 0 0)} 

 stencil 1
size 9
9{(0 0 0)} 

 stencil 2
size 9
9{(0 0 0)} 

 stencil 3
size 9
9{(0 0 0)} 

 stencil 4
size 9
9{(0 0 0)} 

 cell 190

 stencil 0
size 9
9{(0 0 0)} 

 stencil 1
size 9
9{(0 0 0)} 

 stencil 2
size 9
9{(0 0 0)} 

 stencil 3
size 9
9{(0 0 0)} 

 stencil 4
size 9
9{(0 0 0)} 

 cell 191

 stencil 0
size 9
9{(0 0 0)} 

 stencil 1
size 9
9{(0 0 0)} 

 stencil 2
size 9
9{(0 0 0)} 

 stencil 3
size 9
9{(0 0 0)} 

 stencil 4
size 9
9{(0 0 0)} 

 cell 192

 stencil 0
size 9
9{(0 0 0)} 

 stencil 1
size 9
9{(0 0 0)} 

 stencil 2
size 9
9{(0 0 0)} 

 stencil 3
size 9
9{(0 0 0)} 

 stencil 4
size 9
9{(0 0 0)} 

 cell 193

 stencil 0
size 9
9{(0 0 0)} 

 stencil 1
size 9
9{(0 0 0)} 

 stencil 2
size 9
9{(0 0 0)} 

 stencil 3
size 9
9{(0 0 0)} 

 stencil 4
size 9
9{(0 0 0)} 

 cell 194

 stencil 0
size 9
9{(0 0 0)} 

 stencil 1
size 9
9{(0 0 0)} 

 stencil 2
size 9
9{(0 0 0)} 

 stencil 3
size 9
9{(0 0 0)} 

 stencil 4
size 9
9{(0 0 0)} 

 cell 195

 stencil 0
size 9
9{(0 0 0)} 

 stencil 1
size 9
9{(0 0 0)} 

 stencil 2
size 9
9{(0 0 0)} 

 stencil 3
size 9
9{(0 0 0)} 

 stencil 4
size 9
9{(0 0 0)} 

 cell 196

 stencil 0
size 9
9{(0 0 0)} 

 stencil 1
 stencil 1
size 9
9{(0 0 0)} 

 stencil 2
size 9
9{(0 0 0)} 

 stencil 3
size 9
9{(0 0 0)} 

 cell 197

 stencil 0
size 9
9{(0 0 0)} 

 stencil 1
 stencil 1
size 9
9{(0 0 0)} 

 stencil 2
size 9
9{(0 0 0)} 

 stencil 3
size 9
9{(0 0 0)} 

 cell 198

 stencil 0
size 9
9{(0 0 0)} 

 stencil 1
 stencil 1
size 9
9{(0 0 0)} 

 stencil 2
size 9
9{(0 0 0)} 

 stencil 3
size 9
9{(0 0 0)} 

 cell 199

 stencil 0
size 9
9{(0 0 0)} 

 stencil 1
size 9
9{(0 0 0)} 

 stencil 2
size 9
9{(0 0 0)} 

 stencil 3
size 9
9{(0 0 0)} 

 cell 200

 stencil 0
size 9
9{(0 0 0)} 

 stencil 1
size 9
9{(0 0 0)} 

 stencil 2
size 9
9{(0 0 0)} 

 stencil 3
size 9
9{(0 0 0)} 

 cell 201

 stencil 0
size 9
9{(0 0 0)} 

 stencil 1
size 9
9{(0 0 0)} 

 stencil 2
size 9
9{(0 0 0)} 

 stencil 3
size 9
9{(0 0 0)} 

 cell 202

 stencil 0
size 9
9{(0 0 0)} 

 stencil 1
size 9
9{(0 0 0)} 

 stencil 2
size 9
9{(0 0 0)} 

 stencil 3
size 9
9{(0 0 0)} 

 cell 203

 stencil 0
size 9
9{(0 0 0)} 

 stencil 1
size 9
9{(0 0 0)} 

 stencil 2
size 9
9{(0 0 0)} 

 stencil 3
size 9
9{(0 0 0)} 

 cell 204

 stencil 0
size 9
9{(0 0 0)} 

 stencil 1
size 9
9{(0 0 0)} 

 stencil 2
size 9
9{(0 0 0)} 

 stencil 3
size 9
9{(0 0 0)} 

 stencil 4
size 9
9{(0 0 0)} 

 cell 205

 stencil 0
size 9
9{(0 0 0)} 

 stencil 1
size 9
9{(0 0 0)} 

 stencil 2
size 9
9{(0 0 0)} 

 stencil 3
size 9
9{(0 0 0)} 

 stencil 4
size 9
9{(0 0 0)} 

 cell 206

 stencil 0
size 9
9{(0 0 0)} 

 stencil 1
size 9
9{(0 0 0)} 

 stencil 2
size 9
9{(0 0 0)} 

 stencil 3
size 9
9{(0 0 0)} 

 stencil 4
size 9
9{(0 0 0)} 

 cell 207

 stencil 0
size 9
9{(0 0 0)} 

 stencil 1
size 9
9{(0 0 0)} 

 stencil 2
size 9
9{(0 0 0)} 

 stencil 3
size 9
9{(0 0 0)} 

 stencil 4
size 9
9{(0 0 0)} 

 cell 208

 stencil 0
size 9
9{(0 0 0)} 

 stencil 1
size 9
9{(0 0 0)} 

 stencil 2
size 9
9{(0 0 0)} 

 stencil 3
size 9
9{(0 0 0)} 

 stencil 4
size 9
9{(0 0 0)} 

 cell 209

 stencil 0
size 9
9{(0 0 0)} 

 stencil 1
size 9
9{(0 0 0)} 

 stencil 2
size 9
9{(0 0 0)} 

 stencil 3
size 9
9{(0 0 0)} 

 stencil 4
size 9
9{(0 0 0)} 

 cell 210

 stencil 0
size 9
9{(0 0 0)} 

 stencil 1
size 9
9{(0 0 0)} 

 stencil 2
size 9
9{(0 0 0)} 

 stencil 3
size 9
9{(0 0 0)} 

 stencil 4
size 9
9{(0 0 0)} 

 cell 211

 stencil 0
size 9
9{(0 0 0)} 

 stencil 1
size 9
9{(0 0 0)} 

 stencil 2
size 9
9{(0 0 0)} 

 stencil 3
size 9
9{(0 0 0)} 

 stencil 4
size 9
9{(0 0 0)} 

 cell 212

 stencil 0
size 9
9{(0 0 0)} 

 stencil 1
size 9
9{(0 0 0)} 

 stencil 2
size 9
9{(0 0 0)} 

 stencil 3
size 9
9{(0 0 0)} 

 stencil 4
size 9
9{(0 0 0)} 

 cell 213

 stencil 0
size 9
9{(0 0 0)} 

 stencil 1
size 9
9{(0 0 0)} 

 stencil 2
size 9
9{(0 0 0)} 

 stencil 3
size 9
9{(0 0 0)} 

 stencil 4
size 9
9{(0 0 0)} 

 cell 214

 stencil 0
size 9
9{(0 0 0)} 

 stencil 1
size 9
9{(0 0 0)} 

 stencil 2
size 9
9{(0 0 0)} 

 stencil 3
size 9
9{(0 0 0)} 

 stencil 4
size 9
9{(0 0 0)} 

 cell 215

 stencil 0
size 9
9{(0 0 0)} 

 stencil 1
 stencil 1
size 9
9{(0 0 0)} 

 stencil 2
size 9
9{(0 0 0)} 

 stencil 3
size 9
9{(0 0 0)} 

 cell 216

 stencil 0
size 9
9{(0 0 0)} 

 stencil 1
 stencil 1
size 9
9{(0 0 0)} 

 stencil 2
size 9
9{(0 0 0)} 

 stencil 3
size 9
9{(0 0 0)} 

 cell 217

 stencil 0
size 9
9{(0 0 0)} 

 stencil 1
 stencil 1
size 9
9{(0 0 0)} 

 stencil 2
size 9
9{(0 0 0)} 

 stencil 3
size 9
9{(0 0 0)} 

 cell 218

 stencil 0
size 9
9{(0 0 0)} 

 stencil 1
 stencil 1
size 9
9{(0 0 0)} 

 stencil 2
size 9
9{(0 0 0)} 

 stencil 3
size 9
9{(0 0 0)} 

 cell 219

 stencil 0
size 9
9{(0 0 0)} 

 stencil 1
size 9
9{(0 0 0)} 

 stencil 2
size 9
9{(0 0 0)} 

 stencil 3
size 9
9{(0 0 0)} 

 cell 220

 stencil 0
size 9
9{(0 0 0)} 

 stencil 1
size 9
9{(0 0 0)} 

 stencil 2
size 9
9{(0 0 0)} 

 stencil 3
size 9
9{(0 0 0)} 

 cell 221

 stencil 0
size 9
9{(0 0 0)} 

 stencil 1
size 9
9{(0 0 0)} 

 stencil 2
size 9
9{(0 0 0)} 

 stencil 3
size 9
9{(0 0 0)} 

 cell 222

 stencil 0
size 9
9{(0 0 0)} 

 stencil 1
size 9
9{(0 0 0)} 

 stencil 2
size 9
9{(0 0 0)} 

 stencil 3
size 9
9{(0 0 0)} 

 cell 223

 stencil 0
size 9
9{(0 0 0)} 

 stencil 1
size 9
9{(0 0 0)} 

 stencil 2
size 9
9{(0 0 0)} 

 stencil 3
size 9
9{(0 0 0)} 

 cell 224

 stencil 0
size 9
9{(0 0 0)} 

 stencil 1
size 9
9{(0 0 0)} 

 stencil 2
size 9
9{(0 0 0)} 

 stencil 3
size 9
9{(0 0 0)} 

 stencil 4
size 9
9{(0 0 0)} 

 cell 225

 stencil 0
size 9
9{(0 0 0)} 

 stencil 1
size 9
9{(0 0 0)} 

 stencil 2
size 9
9{(0 0 0)} 

 stencil 3
size 9
9{(0 0 0)} 

 stencil 4
size 9
9{(0 0 0)} 

 cell 226

 stencil 0
size 9
9{(0 0 0)} 

 stencil 1
size 9
9{(0 0 0)} 

 stencil 2
size 9
9{(0 0 0)} 

 stencil 3
size 9
9{(0 0 0)} 

 stencil 4
size 9
9{(0 0 0)} 

 cell 227

 stencil 0
size 9
9{(0 0 0)} 

 stencil 1
size 9
9{(0 0 0)} 

 stencil 2
size 9
9{(0 0 0)} 

 stencil 3
size 9
9{(0 0 0)} 

 stencil 4
size 9
9{(0 0 0)} 

 cell 228

 stencil 0
size 9
9{(0 0 0)} 

 stencil 1
size 9
9{(0 0 0)} 

 stencil 2
size 9
9{(0 0 0)} 

 stencil 3
size 9
9{(0 0 0)} 

 stencil 4
size 9
9{(0 0 0)} 

 cell 229

 stencil 0
size 9
9{(0 0 0)} 

 stencil 1
size 9
9{(0 0 0)} 

 stencil 2
size 9
9{(0 0 0)} 

 stencil 3
size 9
9{(0 0 0)} 

 stencil 4
size 9
9{(0 0 0)} 

 cell 230

 stencil 0
size 9
9{(0 0 0)} 

 stencil 1
size 9
9{(0 0 0)} 

 stencil 2
size 9
9{(0 0 0)} 

 stencil 3
size 9
9{(0 0 0)} 

 stencil 4
size 9
9{(0 0 0)} 

 cell 231

 stencil 0
size 9
9{(0 0 0)} 

 stencil 1
size 9
9{(0 0 0)} 

 stencil 2
size 9
9{(0 0 0)} 

 stencil 3
size 9
9{(0 0 0)} 

 stencil 4
size 9
9{(0 0 0)} 

 cell 232

 stencil 0
size 9
9{(0 0 0)} 

 stencil 1
size 9
9{(0 0 0)} 

 stencil 2
size 9
9{(0 0 0)} 

 stencil 3
size 9
9{(0 0 0)} 

 stencil 4
size 9
9{(0 0 0)} 

 cell 233

 stencil 0
size 9
9{(0 0 0)} 

 stencil 1
size 9
9{(0 0 0)} 

 stencil 2
size 9
9{(0 0 0)} 

 stencil 3
size 9
9{(0 0 0)} 

 stencil 4
size 9
9{(0 0 0)} 

 cell 234

 stencil 0
size 9
9{(0 0 0)} 

 stencil 1
size 9
9{(0 0 0)} 

 stencil 2
size 9
9{(0 0 0)} 

 stencil 3
size 9
9{(0 0 0)} 

 stencil 4
size 9
9{(0 0 0)} 

 cell 235

 stencil 0
size 9
9{(0 0 0)} 

 stencil 1
 stencil 1
size 9
9{(0 0 0)} 

 stencil 2
size 9
9{(0 0 0)} 

 stencil 3
size 9
9{(0 0 0)} 

 cell 236

 stencil 0
size 9
9{(0 0 0)} 

 stencil 1
 stencil 1
size 9
9{(0 0 0)} 

 stencil 2
size 9
9{(0 0 0)} 

 stencil 3
size 9
9{(0 0 0)} 

 cell 237

 stencil 0
size 9
9{(0 0 0)} 

 stencil 1
 stencil 1
size 9
9{(0 0 0)} 

 stencil 2
size 9
9{(0 0 0)} 

 stencil 3
size 9
9{(0 0 0)} 

 cell 238

 stencil 0
size 9
9{(0 0 0)} 

 stencil 1
 stencil 1
size 9
9{(0 0 0)} 

 stencil 2
size 9
9{(0 0 0)} 

 stencil 3
size 9
9{(0 0 0)} 

 cell 239

 stencil 0
size 9
9{(0 0 0)} 

 stencil 1
size 9
9{(0 0 0)} 

 stencil 2
size 9
9{(0 0 0)} 

 stencil 3
size 9
9{(0 0 0)} 

 cell 240

 stencil 0
size 9
9{(0 0 0)} 

 stencil 1
size 9
9{(0 0 0)} 

 stencil 2
size 9
9{(0 0 0)} 

 stencil 3
size 9
9{(0 0 0)} 

 cell 241

 stencil 0
size 9
9{(0 0 0)} 

 stencil 1
size 9
9{(0 0 0)} 

 stencil 2
size 9
9{(0 0 0)} 

 stencil 3
size 9
9{(0 0 0)} 

 cell 242

 stencil 0
size 9
9{(0 0 0)} 

 stencil 1
size 9
9{(0 0 0)} 

 stencil 2
size 9
9{(0 0 0)} 

 stencil 3
size 9
9{(0 0 0)} 

 cell 243

 stencil 0
size 9
9{(0 0 0)} 

 stencil 1
size 9
9{(0 0 0)} 

 stencil 2
size 9
9{(0 0 0)} 

 stencil 3
size 9
9{(0 0 0)} 

 cell 244

 stencil 0
size 9
9{(0 0 0)} 

 stencil 1
size 9
9{(0 0 0)} 

 stencil 2
size 9
9{(0 0 0)} 

 stencil 3
size 9
9{(0 0 0)} 

 stencil 4
size 9
9{(0 0 0)} 

 cell 245

 stencil 0
size 9
9{(0 0 0)} 

 stencil 1
size 9
9{(0 0 0)} 

 stencil 2
size 9
9{(0 0 0)} 

 stencil 3
size 9
9{(0 0 0)} 

 stencil 4
size 9
9{(0 0 0)} 

 cell 246

 stencil 0
size 9
9{(0 0 0)} 

 stencil 1
size 9
9{(0 0 0)} 

 stencil 2
size 9
9{(0 0 0)} 

 stencil 3
size 9
9{(0 0 0)} 

 stencil 4
size 9
9{(0 0 0)} 

 cell 247

 stencil 0
size 9
9{(0 0 0)} 

 stencil 1
size 9
9{(0 0 0)} 

 stencil 2
size 9
9{(0 0 0)} 

 stencil 3
size 9
9{(0 0 0)} 

 stencil 4
size 9
9{(0 0 0)} 

 cell 248

 stencil 0
size 9
9{(0 0 0)} 

 stencil 1
size 9
9{(0 0 0)} 

 stencil 2
size 9
9{(0 0 0)} 

 stencil 3
size 9
9{(0 0 0)} 

 stencil 4
size 9
9{(0 0 0)} 

 cell 249

 stencil 0
size 9
9{(0 0 0)} 

 stencil 1
size 9
9{(0 0 0)} 

 stencil 2
size 9
9{(0 0 0)} 

 stencil 3
size 9
9{(0 0 0)} 

 stencil 4
size 9
9{(0 0 0)} 

 cell 250

 stencil 0
size 9
9{(0 0 0)} 

 stencil 1
size 9
9{(0 0 0)} 

 stencil 2
size 9
9{(0 0 0)} 

 stencil 3
size 9
9{(0 0 0)} 

 stencil 4
size 9
9{(0 0 0)} 

 cell 251

 stencil 0
size 9
9{(0 0 0)} 

 stencil 1
size 9
9{(0 0 0)} 

 stencil 2
size 9
9{(0 0 0)} 

 stencil 3
size 9
9{(0 0 0)} 

 stencil 4
size 9
9{(0 0 0)} 

 cell 252

 stencil 0
size 9
9{(0 0 0)} 

 stencil 1
size 9
9{(0 0 0)} 

 stencil 2
size 9
9{(0 0 0)} 

 stencil 3
size 9
9{(0 0 0)} 

 stencil 4
size 9
9{(0 0 0)} 

 cell 253

 stencil 0
size 9
9{(0 0 0)} 

 stencil 1
size 9
9{(0 0 0)} 

 stencil 2
size 9
9{(0 0 0)} 

 stencil 3
size 9
9{(0 0 0)} 

 stencil 4
size 9
9{(0 0 0)} 

 cell 254

 stencil 0
size 9
9{(0 0 0)} 

 stencil 1
size 9
9{(0 0 0)} 

 stencil 2
size 9
9{(0 0 0)} 

 stencil 3
size 9
9{(0 0 0)} 

 stencil 4
size 9
9{(0 0 0)} 

 cell 255

 stencil 0
size 9
9{(0 0 0)} 

 stencil 1
size 9
9{(0 0 0)} 

 stencil 2
size 9
9{(0 0 0)} 

 stencil 3
size 9
9{(0 0 0)} 

 stencil 4
size 9
9{(0 0 0)} 

 cell 256

 stencil 0
size 9
9{(0 0 0)} 

 stencil 1
 stencil 1
size 9
9{(0 0 0)} 

 stencil 2
size 9
9{(0 0 0)} 

 stencil 3
size 9
9{(0 0 0)} 

 cell 257

 stencil 0
size 9
9{(0 0 0)} 

 stencil 1
 stencil 1
size 9
9{(0 0 0)} 

 stencil 2
size 9
9{(0 0 0)} 

 stencil 3
size 9
9{(0 0 0)} 

 cell 258

 stencil 0
size 9
9{(0 0 0)} 

 stencil 1
 stencil 1
size 9
9{(0 0 0)} 

 stencil 2
size 9
9{(0 0 0)} 

 stencil 3
size 9
9{(0 0 0)} 

 cell 259

 stencil 0
size 9
9{(0 0 0)} 

 stencil 1
size 9
9{(0 0 0)} 

 stencil 2
size 9
9{(0 0 0)} 

 stencil 3
size 9
9{(0 0 0)} 

 cell 260

 stencil 0
size 9
9{(0 0 0)} 

 stencil 1
size 9
9{(0 0 0)} 

 stencil 2
 stencil 2
size 9
9{(0 0 0)} 

 cell 261

 stencil 0
size 9
9{(0 0 0)} 

 stencil 1
size 9
9{(0 0 0)} 

 stencil 2
size 9
9{(0 0 0)} 

 stencil 3
size 9
9{(0 0 0)} 

 cell 262

 stencil 0
size 9
9{(0 0 0)} 

 stencil 1
size 9
9{(0 0 0)} 

 stencil 2
size 9
9{(0 0 0)} 

 stencil 3
size 9
9{(0 0 0)} 

 cell 263

 stencil 0
size 9
9{(0 0 0)} 

 stencil 1
size 9
9{(0 0 0)} 

 stencil 2
size 9
9{(0 0 0)} 

 stencil 3
size 9
9{(0 0 0)} 

 cell 264

 stencil 0
size 9
9{(0 0 0)} 

 stencil 1
size 9
9{(0 0 0)} 

 stencil 2
size 9
9{(0 0 0)} 

 stencil 3
size 9
9{(0 0 0)} 

 stencil 4
size 9
9{(0 0 0)} 

 cell 265

 stencil 0
size 9
9{(0 0 0)} 

 stencil 1
size 9
9{(0 0 0)} 

 stencil 2
size 9
9{(0 0 0)} 

 stencil 3
size 9
9{(0 0 0)} 

 stencil 4
size 9
9{(0 0 0)} 

 cell 266

 stencil 0
size 9
9{(0 0 0)} 

 stencil 1
size 9
9{(0 0 0)} 

 stencil 2
size 9
9{(0 0 0)} 

 stencil 3
size 9
9{(0 0 0)} 

 stencil 4
size 9
9{(0 0 0)} 

 cell 267

 stencil 0
size 9
9{(0 0 0)} 

 stencil 1
size 9
9{(0 0 0)} 

 stencil 2
size 9
9{(0 0 0)} 

 stencil 3
size 9
9{(0 0 0)} 

 stencil 4
size 9
9{(0 0 0)} 

 cell 268

 stencil 0
size 9
9{(0 0 0)} 

 stencil 1
size 9
9{(0 0 0)} 

 stencil 2
size 9
9{(0 0 0)} 

 stencil 3
size 9
9{(0 0 0)} 

 stencil 4
size 9
9{(0 0 0)} 

 cell 269

 stencil 0
size 9
9{(0 0 0)} 

 stencil 1
size 9
9{(0 0 0)} 

 stencil 2
size 9
9{(0 0 0)} 

 stencil 3
size 9
9{(0 0 0)} 

 stencil 4
size 9
9{(0 0 0)} 

 cell 270

 stencil 0
size 9
9{(0 0 0)} 

 stencil 1
size 9
9{(0 0 0)} 

 stencil 2
size 9
9{(0 0 0)} 

 stencil 3
size 9
9{(0 0 0)} 

 stencil 4
size 9
9{(0 0 0)} 

 cell 271

 stencil 0
size 9
9{(0 0 0)} 

 stencil 1
size 9
9{(0 0 0)} 

 stencil 2
size 9
9{(0 0 0)} 

 stencil 3
size 9
9{(0 0 0)} 

 stencil 4
size 9
9{(0 0 0)} 

 cell 272

 stencil 0
size 9
9{(0 0 0)} 

 stencil 1
size 9
9{(0 0 0)} 

 stencil 2
size 9
9{(0 0 0)} 

 stencil 3
size 9
9{(0 0 0)} 

 stencil 4
size 9
9{(0 0 0)} 

 cell 273

 stencil 0
size 9
9{(0 0 0)} 

 stencil 1
size 9
9{(0 0 0)} 

 stencil 2
size 9
9{(0 0 0)} 

 stencil 3
size 9
9{(0 0 0)} 

 stencil 4
size 9
9{(0 0 0)} 

 cell 274

 stencil 0
size 9
9{(0 0 0)} 

 stencil 1
size 9
9{(0 0 0)} 

 stencil 2
size 9
9{(0 0 0)} 

 stencil 3
size 9
9{(0 0 0)} 

 stencil 4
size 9
9{(0 0 0)} 

 cell 275

 stencil 0
size 9
9{(0 0 0)} 

 stencil 1
size 9
9{(0 0 0)} 

 stencil 2
size 9
9{(0 0 0)} 

 stencil 3
size 9
9{(0 0 0)} 

 stencil 4
size 9
9{(0 0 0)} 

 cell 276

 stencil 0
size 9
9{(0 0 0)} 

 stencil 1
 stencil 1
size 9
9{(0 0 0)} 

 stencil 2
size 9
9{(0 0 0)} 

 stencil 3
size 9
9{(0 0 0)} 

 cell 277

 stencil 0
size 9
9{(0 0 0)} 

 stencil 1
 stencil 1
size 9
9{(0 0 0)} 

 stencil 2
size 9
9{(0 0 0)} 

 stencil 3
size 9
9{(0 0 0)} 

 cell 278

 stencil 0
size 9
9{(0 0 0)} 

 stencil 1
 stencil 1
size 9
9{(0 0 0)} 

 stencil 2
size 9
9{(0 0 0)} 

 stencil 3
size 9
9{(0 0 0)} 

 cell 279

 stencil 0
size 9
9{(0 0 0)} 

 stencil 1
 stencil 1
size 9
9{(0 0 0)} 

 stencil 2
size 9
9{(0 0 0)} 

 cell 280

 stencil 0
size 9
9{(0 0 0)} 

 stencil 1
size 9
9{(0 0 0)} 

 stencil 2
 stencil 2
size 9
9{(0 0 0)} 

 cell 281

 stencil 0
size 9
9{(0 0 0)} 

 stencil 1
size 9
9{(0 0 0)} 

 stencil 2
size 9
9{(0 0 0)} 

 stencil 3
size 9
9{(0 0 0)} 

 cell 282

 stencil 0
size 9
9{(0 0 0)} 

 stencil 1
size 9
9{(0 0 0)} 

 stencil 2
size 9
9{(0 0 0)} 

 stencil 3
size 9
9{(0 0 0)} 

 cell 283

 stencil 0
size 9
9{(0 0 0)} 

 stencil 1
size 9
9{(0 0 0)} 

 stencil 2
size 9
9{(0 0 0)} 

 stencil 3
size 9
9{(0 0 0)} 

 cell 284

 stencil 0
size 9
9{(0 0 0)} 

 stencil 1
size 9
9{(0 0 0)} 

 stencil 2
size 9
9{(0 0 0)} 

 stencil 3
size 9
9{(0 0 0)} 

 stencil 4
size 9
9{(0 0 0)} 

 cell 285

 stencil 0
size 9
9{(0 0 0)} 

 stencil 1
size 9
9{(0 0 0)} 

 stencil 2
size 9
9{(0 0 0)} 

 stencil 3
size 9
9{(0 0 0)} 

 stencil 4
size 9
9{(0 0 0)} 

 cell 286

 stencil 0
size 9
9{(0 0 0)} 

 stencil 1
size 9
9{(0 0 0)} 

 stencil 2
size 9
9{(0 0 0)} 

 stencil 3
size 9
9{(0 0 0)} 

 stencil 4
size 9
9{(0 0 0)} 

 cell 287

 stencil 0
size 9
9{(0 0 0)} 

 stencil 1
size 9
9{(0 0 0)} 

 stencil 2
size 9
9{(0 0 0)} 

 stencil 3
size 9
9{(0 0 0)} 

 stencil 4
size 9
9{(0 0 0)} 

 cell 288

 stencil 0
size 9
9{(0 0 0)} 

 stencil 1
size 9
9{(0 0 0)} 

 stencil 2
size 9
9{(0 0 0)} 

 stencil 3
size 9
9{(0 0 0)} 

 stencil 4
size 9
9{(0 0 0)} 

 cell 289

 stencil 0
size 9
9{(0 0 0)} 

 stencil 1
size 9
9{(0 0 0)} 

 stencil 2
size 9
9{(0 0 0)} 

 stencil 3
size 9
9{(0 0 0)} 

 stencil 4
size 9
9{(0 0 0)} 

 cell 290

 stencil 0
size 9
9{(0 0 0)} 

 stencil 1
size 9
9{(0 0 0)} 

 stencil 2
size 9
9{(0 0 0)} 

 stencil 3
size 9
9{(0 0 0)} 

 stencil 4
size 9
9{(0 0 0)} 

 cell 291

 stencil 0
size 9
9{(0 0 0)} 

 stencil 1
size 9
9{(0 0 0)} 

 stencil 2
size 9
9{(0 0 0)} 

 stencil 3
size 9
9{(0 0 0)} 

 stencil 4
size 9
9{(0 0 0)} 

 cell 292

 stencil 0
size 9
9{(0 0 0)} 

 stencil 1
size 9
9{(0 0 0)} 

 stencil 2
size 9
9{(0 0 0)} 

 stencil 3
size 9
9{(0 0 0)} 

 stencil 4
size 9
9{(0 0 0)} 

 cell 293

 stencil 0
size 9
9{(0 0 0)} 

 stencil 1
size 9
9{(0 0 0)} 

 stencil 2
size 9
9{(0 0 0)} 

 stencil 3
size 9
9{(0 0 0)} 

 stencil 4
size 9
9{(0 0 0)} 

 cell 294

 stencil 0
size 9
9{(0 0 0)} 

 stencil 1
size 9
9{(0 0 0)} 

 stencil 2
size 9
9{(0 0 0)} 

 stencil 3
size 9
9{(0 0 0)} 

 stencil 4
size 9
9{(0 0 0)} 

 cell 295

 stencil 0
size 9
9{(0 0 0)} 

 stencil 1
 stencil 1
size 9
9{(0 0 0)} 

 stencil 2
size 9
9{(0 0 0)} 

 stencil 3
size 9
9{(0 0 0)} 

 cell 296

 stencil 0
size 9
9{(0 0 0)} 

 stencil 1
 stencil 1
size 9
9{(0 0 0)} 

 stencil 2
size 9
9{(0 0 0)} 

 stencil 3
size 9
9{(0 0 0)} 

 cell 297

 stencil 0
size 9
9{(0 0 0)} 

 stencil 1
 stencil 1
size 9
9{(0 0 0)} 

 stencil 2
size 9
9{(0 0 0)} 

 stencil 3
size 9
9{(0 0 0)} 

 cell 298

 stencil 0
size 9
9{(0 0 0)} 

 stencil 1
 stencil 1
size 9
9{(0 0 0)} 

 stencil 2
size 9
9{(0 0 0)} 

 stencil 3
size 9
9{(0 0 0)} 

 cell 299

 stencil 0
size 9
9{(0 0 0)} 

 stencil 1
size 9
9{(0 0 0)} 

 stencil 2
size 9
9{(0 0 0)} 

 stencil 3
size 9
9{(0 0 0)} 

 cell 300

 stencil 0
size 9
9{(0 0 0)} 

 stencil 1
size 9
9{(0 0 0)} 

 stencil 2
 stencil 2
size 9
9{(0 0 0)} 

 cell 301

 stencil 0
size 9
9{(0 0 0)} 

 stencil 1
size 9
9{(0 0 0)} 

 stencil 2
 stencil 2
size 9
9{(0 0 0)} 

 cell 302

 stencil 0
size 9
9{(0 0 0)} 

 stencil 1
size 9
9{(0 0 0)} 

 stencil 2
 stencil 2
size 9
9{(0 0 0)} 

 cell 303

 stencil 0
size 9
9{(0 0 0)} 

 stencil 1
size 9
9{(0 0 0)} 

 stencil 2
 stencil 2
size 9
9{(0 0 0)} 

 cell 304

 stencil 0
size 9
9{(0 0 0)} 

 stencil 1
size 9
9{(0 0 0)} 

 stencil 2
 stencil 2
size 9
9{(0 0 0)} 

 stencil 3
size 9
9{(0 0 0)} 

 cell 305

 stencil 0
size 9
9{(0 0 0)} 

 stencil 1
size 9
9{(0 0 0)} 

 stencil 2
 stencil 2
size 9
9{(0 0 0)} 

 stencil 3
size 9
9{(0 0 0)} 

 cell 306

 stencil 0
size 9
9{(0 0 0)} 

 stencil 1
size 9
9{(0 0 0)} 

 stencil 2
 stencil 2
size 9
9{(0 0 0)} 

 stencil 3
size 9
9{(0 0 0)} 

 cell 307

 stencil 0
size 9
9{(0 0 0)} 

 stencil 1
size 9
9{(0 0 0)} 

 stencil 2
 stencil 2
size 9
9{(0 0 0)} 

 stencil 3
size 9
9{(0 0 0)} 

 cell 308

 stencil 0
size 9
9{(0 0 0)} 

 stencil 1
size 9
9{(0 0 0)} 

 stencil 2
 stencil 2
size 9
9{(0 0 0)} 

 stencil 3
size 9
9{(0 0 0)} 

 cell 309

 stencil 0
size 9
9{(0 0 0)} 

 stencil 1
size 9
9{(0 0 0)} 

 stencil 2
 stencil 2
size 9
9{(0 0 0)} 

 stencil 3
size 9
9{(0 0 0)} 

 cell 310

 stencil 0
size 9
9{(0 0 0)} 

 stencil 1
size 9
9{(0 0 0)} 

 stencil 2
 stencil 2
size 9
9{(0 0 0)} 

 stencil 3
size 9
9{(0 0 0)} 

 cell 311

 stencil 0
size 9
9{(0 0 0)} 

 stencil 1
size 9
9{(0 0 0)} 

 stencil 2
 stencil 2
size 9
9{(0 0 0)} 

 stencil 3
size 9
9{(0 0 0)} 

 cell 312

 stencil 0
size 9
9{(0 0 0)} 

 stencil 1
size 9
9{(0 0 0)} 

 stencil 2
 stencil 2
size 9
9{(0 0 0)} 

 stencil 3
size 9
9{(0 0 0)} 

 cell 313

 stencil 0
size 9
9{(0 0 0)} 

 stencil 1
size 9
9{(0 0 0)} 

 stencil 2
 stencil 2
size 9
9{(0 0 0)} 

 stencil 3
size 9
9{(0 0 0)} 

 cell 314

 stencil 0
size 9
9{(0 0 0)} 

 stencil 1
size 9
9{(0 0 0)} 

 stencil 2
 stencil 2
size 9
9{(0 0 0)} 

 stencil 3
size 9
9{(0 0 0)} 

 cell 315

 stencil 0
size 9
9{(0 0 0)} 

 stencil 1
size 9
9{(0 0 0)} 

 stencil 2
 stencil 2
size 9
9{(0 0 0)} 

 stencil 3
size 9
9{(0 0 0)} 

 cell 316

 stencil 0
size 9
9{(0 0 0)} 

 stencil 1
 stencil 1
size 9
9{(0 0 0)} 

 stencil 2
size 9
9{(0 0 0)} 

 stencil 3
size 9
9{(0 0 0)} 

 cell 317

 stencil 0
size 9
9{(0 0 0)} 

 stencil 1
 stencil 1
 stencil 1
size 9
9{(0 0 0)} 

 stencil 2
size 9
9{(0 0 0)} 

 cell 318

 stencil 0
size 9
9{(0 0 0)} 

 stencil 1
 stencil 1
 stencil 1
size 9
9{(0 0 0)} 

 stencil 2
size 9
9{(0 0 0)} 

 cell 319

 stencil 0
size 9
9{(0 0 0)} 

 stencil 1
 stencil 1
size 9
9{(0 0 0)} 

 stencil 2
size 9
9{(0 0 0)} 

 cell 320

 stencil 0
size 9
9{(0 0 0)} 

 stencil 1
size 9
9{(0 0 0)} 

 stencil 2
 stencil 2
size 9
9{(0 0 0)} 

 cell 321

 stencil 0
size 9
9{(0 0 0)} 

 stencil 1
size 9
9{(0 0 0)} 

 stencil 2
 stencil 2
size 9
9{(0 0 0)} 

 cell 322

 stencil 0
size 9
9{(0 0 0)} 

 stencil 1
size 9
9{(0 0 0)} 

 stencil 2
 stencil 2
size 9
9{(0 0 0)} 

 cell 323

 stencil 0
size 9
9{(0 0 0)} 

 stencil 1
size 9
9{(0 0 0)} 

 stencil 2
 stencil 2
size 9
9{(0 0 0)} 

 cell 324

 stencil 0
size 9
9{(0 0 0)} 

 stencil 1
size 9
9{(0 0 0)} 

 stencil 2
 stencil 2
size 9
9{(0 0 0)} 

 stencil 3
size 9
9{(0 0 0)} 

 cell 325

 stencil 0
size 9
9{(0 0 0)} 

 stencil 1
size 9
9{(0 0 0)} 

 stencil 2
 stencil 2
size 9
9{(0 0 0)} 

 stencil 3
size 9
9{(0 0 0)} 

 cell 326

 stencil 0
size 9
9{(0 0 0)} 

 stencil 1
size 9
9{(0 0 0)} 

 stencil 2
 stencil 2
size 9
9{(0 0 0)} 

 stencil 3
size 9
9{(0 0 0)} 

 cell 327

 stencil 0
size 9
9{(0 0 0)} 

 stencil 1
size 9
9{(0 0 0)} 

 stencil 2
 stencil 2
size 9
9{(0 0 0)} 

 stencil 3
size 9
9{(0 0 0)} 

 cell 328

 stencil 0
size 9
9{(0 0 0)} 

 stencil 1
size 9
9{(0 0 0)} 

 stencil 2
 stencil 2
size 9
9{(0 0 0)} 

 stencil 3
size 9
9{(0 0 0)} 

 cell 329

 stencil 0
size 9
9{(0 0 0)} 

 stencil 1
size 9
9{(0 0 0)} 

 stencil 2
 stencil 2
size 9
9{(0 0 0)} 

 stencil 3
size 9
9{(0 0 0)} 

 cell 330

 stencil 0
size 9
9{(0 0 0)} 

 stencil 1
size 9
9{(0 0 0)} 

 stencil 2
 stencil 2
size 9
9{(0 0 0)} 

 stencil 3
size 9
9{(0 0 0)} 

 cell 331

 stencil 0
size 9
9{(0 0 0)} 

 stencil 1
size 9
9{(0 0 0)} 

 stencil 2
 stencil 2
size 9
9{(0 0 0)} 

 stencil 3
size 9
9{(0 0 0)} 

 cell 332

 stencil 0
size 9
9{(0 0 0)} 

 stencil 1
size 9
9{(0 0 0)} 

 stencil 2
 stencil 2
size 9
9{(0 0 0)} 

 stencil 3
size 9
9{(0 0 0)} 

 cell 333

 stencil 0
size 9
9{(0 0 0)} 

 stencil 1
size 9
9{(0 0 0)} 

 stencil 2
 stencil 2
size 9
9{(0 0 0)} 

 stencil 3
size 9
9{(0 0 0)} 

 cell 334

 stencil 0
size 9
9{(0 0 0)} 

 stencil 1
size 9
9{(0 0 0)} 

 stencil 2
 stencil 2
size 9
9{(0 0 0)} 

 stencil 3
size 9
9{(0 0 0)} 

 cell 335

 stencil 0
size 9
9{(0 0 0)} 

 stencil 1
size 9
9{(0 0 0)} 

 stencil 2
 stencil 2
size 9
9{(0 0 0)} 

 stencil 3
size 9
9{(0 0 0)} 

 cell 336

 stencil 0
size 9
9{(0 0 0)} 

 stencil 1
 stencil 1
 stencil 1
size 9
9{(0 0 0)} 

 stencil 2
size 9
9{(0 0 0)} 

 cell 337

 stencil 0
size 9
9{(0 0 0)} 

 stencil 1
 stencil 1
 stencil 1
size 9
9{(0 0 0)} 

 stencil 2
size 9
9{(0 0 0)} 

 cell 338

 stencil 0
size 9
9{(0 0 0)} 

 stencil 1
 stencil 1
 stencil 1
size 9
9{(0 0 0)} 

 stencil 2
size 9
9{(0 0 0)} 

 cell 339

 stencil 0
size 9
9{(0 0 0)} 

 stencil 1
 stencil 1
size 9
9{(0 0 0)} 

 stencil 2
size 9
9{(0 0 0)} 

 cell 340

 stencil 0
size 9
9{(0 0 0)} 

 stencil 1
size 9
9{(0 0 0)} 

 stencil 2
 stencil 2
size 9
9{(0 0 0)} 

 cell 341

 stencil 0
size 9
9{(0 0 0)} 

 stencil 1
size 9
9{(0 0 0)} 

 stencil 2
 stencil 2
size 9
9{(0 0 0)} 

 cell 342

 stencil 0
size 9
9{(0 0 0)} 

 stencil 1
size 9
9{(0 0 0)} 

 stencil 2
 stencil 2
size 9
9{(0 0 0)} 

 cell 343

 stencil 0
size 9
9{(0 0 0)} 

 stencil 1
size 9
9{(0 0 0)} 

 stencil 2
 stencil 2
size 9
9{(0 0 0)} 

 cell 344

 stencil 0
size 9
9{(0 0 0)} 

 stencil 1
size 9
9{(0 0 0)} 

 stencil 2
 stencil 2
size 9
9{(0 0 0)} 

 cell 345

 stencil 0
size 9
9{(0 0 0)} 

 stencil 1
size 9
9{(0 0 0)} 

 stencil 2
 stencil 2
size 9
9{(0 0 0)} 

 stencil 3
size 9
9{(0 0 0)} 

 cell 346

 stencil 0
size 9
9{(0 0 0)} 

 stencil 1
size 9
9{(0 0 0)} 

 stencil 2
 stencil 2
size 9
9{(0 0 0)} 

 stencil 3
size 9
9{(0 0 0)} 

 cell 347

 stencil 0
size 9
9{(0 0 0)} 

 stencil 1
size 9
9{(0 0 0)} 

 stencil 2
 stencil 2
size 9
9{(0 0 0)} 

 stencil 3
size 9
9{(0 0 0)} 

 cell 348

 stencil 0
size 9
9{(0 0 0)} 

 stencil 1
size 9
9{(0 0 0)} 

 stencil 2
 stencil 2
size 9
9{(0 0 0)} 

 stencil 3
size 9
9{(0 0 0)} 

 cell 349

 stencil 0
size 9
9{(0 0 0)} 

 stencil 1
size 9
9{(0 0 0)} 

 stencil 2
 stencil 2
size 9
9{(0 0 0)} 

 stencil 3
size 9
9{(0 0 0)} 

 cell 350

 stencil 0
size 9
9{(0 0 0)} 

 stencil 1
size 9
9{(0 0 0)} 

 stencil 2
 stencil 2
size 9
9{(0 0 0)} 

 stencil 3
size 9
9{(0 0 0)} 

 cell 351

 stencil 0
size 9
9{(0 0 0)} 

 stencil 1
size 9
9{(0 0 0)} 

 stencil 2
 stencil 2
size 9
9{(0 0 0)} 

 stencil 3
size 9
9{(0 0 0)} 

 cell 352

 stencil 0
size 9
9{(0 0 0)} 

 stencil 1
size 9
9{(0 0 0)} 

 stencil 2
 stencil 2
size 9
9{(0 0 0)} 

 stencil 3
size 9
9{(0 0 0)} 

 cell 353

 stencil 0
size 9
9{(0 0 0)} 

 stencil 1
size 9
9{(0 0 0)} 

 stencil 2
 stencil 2
size 9
9{(0 0 0)} 

 stencil 3
size 9
9{(0 0 0)} 

 cell 354

 stencil 0
size 9
9{(0 0 0)} 

 stencil 1
size 9
9{(0 0 0)} 

 stencil 2
 stencil 2
size 9
9{(0 0 0)} 

 stencil 3
size 9
9{(0 0 0)} 

 cell 355

 stencil 0
size 9
9{(0 0 0)} 

 stencil 1
 stencil 1
 stencil 1
size 9
9{(0 0 0)} 

 stencil 2
size 9
9{(0 0 0)} 

 cell 356

 stencil 0
size 9
9{(0 0 0)} 

 stencil 1
 stencil 1
 stencil 1
size 9
9{(0 0 0)} 

 stencil 2
size 9
9{(0 0 0)} 

 cell 357

 stencil 0
size 9
9{(0 0 0)} 

 stencil 1
 stencil 1
 stencil 1
size 9
9{(0 0 0)} 

 stencil 2
size 9
9{(0 0 0)} 

 cell 358

 stencil 0
size 9
9{(0 0 0)} 

 stencil 1
 stencil 1
 stencil 1
size 9
9{(0 0 0)} 

 stencil 2
size 9
9{(0 0 0)} 

 cell 359

 stencil 0
size 9
9{(0 0 0)} 

 stencil 1
 stencil 1
size 9
9{(0 0 0)} 

 stencil 2
size 9
9{(0 0 0)} 

 cell 360

 stencil 0
size 9
9{(0 0 0)} 

 stencil 1
size 9
9{(0 0 0)} 

 stencil 2
 stencil 2
size 9
9{(0 0 0)} 

 cell 361

 stencil 0
size 9
9{(0 0 0)} 

 stencil 1
size 9
9{(0 0 0)} 

 stencil 2
 stencil 2
size 9
9{(0 0 0)} 

 cell 362

 stencil 0
size 9
9{(0 0 0)} 

 stencil 1
size 9
9{(0 0 0)} 

 stencil 2
 stencil 2
size 9
9{(0 0 0)} 

 cell 363

 stencil 0
size 9
9{(0 0 0)} 

 stencil 1
size 9
9{(0 0 0)} 

 stencil 2
 stencil 2
size 9
9{(0 0 0)} 

 cell 364

 stencil 0
size 9
9{(0 0 0)} 

 stencil 1
size 9
9{(0 0 0)} 

 stencil 2
 stencil 2
size 9
9{(0 0 0)} 

 cell 365

 stencil 0
size 9
9{(0 0 0)} 

 stencil 1
size 9
9{(0 0 0)} 

 stencil 2
 stencil 2
size 9
9{(0 0 0)} 

 stencil 3
size 9
9{(0 0 0)} 

 cell 366

 stencil 0
size 9
9{(0 0 0)} 

 stencil 1
size 9
9{(0 0 0)} 

 stencil 2
 stencil 2
size 9
9{(0 0 0)} 

 stencil 3
size 9
9{(0 0 0)} 

 cell 367

 stencil 0
size 9
9{(0 0 0)} 

 stencil 1
size 9
9{(0 0 0)} 

 stencil 2
 stencil 2
size 9
9{(0 0 0)} 

 stencil 3
size 9
9{(0 0 0)} 

 cell 368

 stencil 0
size 9
9{(0 0 0)} 

 stencil 1
size 9
9{(0 0 0)} 

 stencil 2
 stencil 2
size 9
9{(0 0 0)} 

 stencil 3
size 9
9{(0 0 0)} 

 cell 369

 stencil 0
size 9
9{(0 0 0)} 

 stencil 1
size 9
9{(0 0 0)} 

 stencil 2
 stencil 2
size 9
9{(0 0 0)} 

 stencil 3
size 9
9{(0 0 0)} 

 cell 370

 stencil 0
size 9
9{(0 0 0)} 

 stencil 1
size 9
9{(0 0 0)} 

 stencil 2
 stencil 2
size 9
9{(0 0 0)} 

 stencil 3
size 9
9{(0 0 0)} 

 cell 371

 stencil 0
size 9
9{(0 0 0)} 

 stencil 1
size 9
9{(0 0 0)} 

 stencil 2
 stencil 2
size 9
9{(0 0 0)} 

 stencil 3
size 9
9{(0 0 0)} 

 cell 372

 stencil 0
size 9
9{(0 0 0)} 

 stencil 1
size 9
9{(0 0 0)} 

 stencil 2
 stencil 2
size 9
9{(0 0 0)} 

 stencil 3
size 9
9{(0 0 0)} 

 cell 373

 stencil 0
size 9
9{(0 0 0)} 

 stencil 1
size 9
9{(0 0 0)} 

 stencil 2
 stencil 2
size 9
9{(0 0 0)} 

 stencil 3
size 9
9{(0 0 0)} 

 cell 374

 stencil 0
size 9
9{(0 0 0)} 

 stencil 1
size 9
9{(0 0 0)} 

 stencil 2
 stencil 2
size 9
9{(0 0 0)} 

 stencil 3
size 9
9{(0 0 0)} 

 cell 375

 stencil 0
size 9
9{(0 0 0)} 

 stencil 1
 stencil 1
 stencil 1
size 9
9{(0 0 0)} 

 stencil 2
size 9
9{(0 0 0)} 

 cell 376

 stencil 0
size 9
9{(0 0 0)} 

 stencil 1
 stencil 1
 stencil 1
size 9
9{(0 0 0)} 

 stencil 2
size 9
9{(0 0 0)} 

 cell 377

 stencil 0
size 9
9{(0 0 0)} 

 stencil 1
 stencil 1
 stencil 1
size 9
9{(0 0 0)} 

 stencil 2
size 9
9{(0 0 0)} 

 cell 378

 stencil 0
size 9
9{(0 0 0)} 

 stencil 1
 stencil 1
 stencil 1
size 9
9{(0 0 0)} 

 stencil 2
size 9
9{(0 0 0)} 

 cell 379

 stencil 0
size 9
9{(0 0 0)} 

 stencil 1
 stencil 1
size 9
9{(0 0 0)} 

 stencil 2
size 9
9{(0 0 0)} 

 cell 380

 stencil 0
size 9
9{(0 0 0)} 

 stencil 1
size 9
9{(0 0 0)} 

 stencil 2
size 9
9{(0 0 0)} 

 cell 381

 stencil 0
size 9
9{(0 0 0)} 

 stencil 1
size 9
9{(0 0 0)} 

 stencil 2
size 9
9{(0 0 0)} 

 cell 382

 stencil 0
size 9
9{(0 0 0)} 

 stencil 1
size 9
9{(0 0 0)} 

 stencil 2
size 9
9{(0 0 0)} 

 cell 383

 stencil 0
size 9
9{(0 0 0)} 

 stencil 1
size 9
9{(0 0 0)} 

 stencil 2
size 9
9{(0 0 0)} 

 cell 384

 stencil 0
size 9
9{(0 0 0)} 

 stencil 1
size 9
9{(0 0 0)} 

 stencil 2
size 9
9{(0 0 0)} 

 cell 385

 stencil 0
size 9
9{(0 0 0)} 

 stencil 1
size 9
9{(0 0 0)} 

 stencil 2
size 9
9{(0 0 0)} 

 stencil 3
size 9
9{(0 0 0)} 

 cell 386

 stencil 0
size 9
9{(0 0 0)} 

 stencil 1
size 9
9{(0 0 0)} 

 stencil 2
size 9
9{(0 0 0)} 

 stencil 3
size 9
9{(0 0 0)} 

 cell 387

 stencil 0
size 9
9{(0 0 0)} 

 stencil 1
size 9
9{(0 0 0)} 

 stencil 2
size 9
9{(0 0 0)} 

 stencil 3
size 9
9{(0 0 0)} 

 cell 388

 stencil 0
size 9
9{(0 0 0)} 

 stencil 1
size 9
9{(0 0 0)} 

 stencil 2
size 9
9{(0 0 0)} 

 stencil 3
size 9
9{(0 0 0)} 

 cell 389

 stencil 0
size 9
9{(0 0 0)} 

 stencil 1
size 9
9{(0 0 0)} 

 stencil 2
size 9
9{(0 0 0)} 

 stencil 3
size 9
9{(0 0 0)} 

 cell 390

 stencil 0
size 9
9{(0 0 0)} 

 stencil 1
size 9
9{(0 0 0)} 

 stencil 2
size 9
9{(0 0 0)} 

 stencil 3
size 9
9{(0 0 0)} 

 cell 391

 stencil 0
size 9
9{(0 0 0)} 

 stencil 1
size 9
9{(0 0 0)} 

 stencil 2
size 9
9{(0 0 0)} 

 stencil 3
size 9
9{(0 0 0)} 

 cell 392

 stencil 0
size 9
9{(0 0 0)} 

 stencil 1
size 9
9{(0 0 0)} 

 stencil 2
size 9
9{(0 0 0)} 

 stencil 3
size 9
9{(0 0 0)} 

 cell 393

 stencil 0
size 9
9{(0 0 0)} 

 stencil 1
size 9
9{(0 0 0)} 

 stencil 2
size 9
9{(0 0 0)} 

 stencil 3
size 9
9{(0 0 0)} 

 cell 394

 stencil 0
size 9
9{(0 0 0)} 

 stencil 1
 stencil 1
size 9
9{(0 0 0)} 

 stencil 2
size 9
9{(0 0 0)} 

 cell 395

 stencil 0
size 9
9{(0 0 0)} 

 stencil 1
 stencil 1
size 9
9{(0 0 0)} 

 stencil 2
size 9
9{(0 0 0)} 

 cell 396

 stencil 0
size 9
9{(0 0 0)} 

 stencil 1
 stencil 1
size 9
9{(0 0 0)} 

 stencil 2
size 9
9{(0 0 0)} 

 cell 397

 stencil 0
size 9
9{(0 0 0)} 

 stencil 1
 stencil 1
size 9
9{(0 0 0)} 

 stencil 2
size 9
9{(0 0 0)} 

 cell 398

 stencil 0
size 9
9{(0 0 0)} 

 stencil 1
 stencil 1
size 9
9{(0 0 0)} 

 stencil 2
size 9
9{(0 0 0)} 

 cell 399

 stencil 0
size 9
9{(0 0 0)} 

 stencil 1
size 9
9{(0 0 0)} 

 stencil 2
size 9
9{(0 0 0)} 

smoothSolver:  Solving for Ux, Initial residual = 1, Final residual = 8.90511e-06, No Iterations 19
smoothSolver:  Solving for Uy, Initial residual = 0, Final residual = 0, No Iterations 0
DICPCG:  Solving for p, Initial residual = 1, Final residual = 7.55423e-07, No Iterations 35
time step continuity errors : sum local = 5.03808e-09, global = -7.94093e-21, cumulative = -7.94093e-21
DICPCG:  Solving for p, Initial residual = 0.523588, Final residual = 9.72371e-07, No Iterations 34
time step continuity errors : sum local = 1.07766e-08, global = 2.00426e-19, cumulative = 1.92485e-19
ExecutionTime = 0.24 s  ClockTime = 1 s

Time = 0.01

Courant Number mean: 0.0976803 max: 0.585723
Reconstruction using WENO3 (2D version)
 cell 0

 stencil 0
size 9
9{(0 0 0)} 

 stencil 1
size 9
9((0.00326825 0 -0.0027868) (-0.00833689 0 -8.04513e-06) (0.00139527 0 0.00300467) (-0.00128872 0 0.00620259) (-0.00534833 0 -0.00137804) (-0.000748563 0 0.000597829) (-0.000144478 0 0.000872223) (-0.00128427 0 -7.19799e-05) (6.35661e-05 0 0)) 

 stencil 2
size 9
9((-9.72366e-05 0 0.000901099) (0.000663582 0 -0.000113059) (-7.50886e-05 0 -0.0139957) (0.000464417 0 0.0112868) (0.00125006 0 -0.00198562) (0.000115592 0 -0.00542914) (0.0044288 0 0.00411866) (-0.000358254 0 -0.000438831) (0.0007495 0 0)) 

double free or corruption (out)
Aborted (core dumped)
